
 ANSYS Mechanical Enterprise                       


 *------------------------------------------------------------------*
 |                                                                  |
 |   W E L C O M E   T O   T H E   A N S Y S (R)  P R O G R A M     |
 |                                                                  |
 *------------------------------------------------------------------*




 ***************************************************************
 *            ANSYS 2019 R2          LEGAL NOTICES             *
 ***************************************************************
 *                                                             *
 * Copyright 1971-2019 ANSYS, Inc.  All rights reserved.       *
 * Unauthorized use, distribution or duplication is            *
 * prohibited.                                                 *
 *                                                             *
 * Ansys is a registered trademark of ANSYS, Inc. or its       *
 * subsidiaries in the United States or other countries.       *
 * See the ANSYS, Inc. online documentation or the ANSYS, Inc. *
 * documentation CD or online help for the complete Legal      *
 * Notice.                                                     *
 *                                                             *
 ***************************************************************
 *                                                             *
 * THIS ANSYS SOFTWARE PRODUCT AND PROGRAM DOCUMENTATION       *
 * INCLUDE TRADE SECRETS AND CONFIDENTIAL AND PROPRIETARY      *
 * PRODUCTS OF ANSYS, INC., ITS SUBSIDIARIES, OR LICENSORS.    *
 * The software products and documentation are furnished by    *
 * ANSYS, Inc. or its subsidiaries under a software license    *
 * agreement that contains provisions concerning               *
 * non-disclosure, copying, length and nature of use,          *
 * compliance with exporting laws, warranties, disclaimers,    *
 * limitations of liability, and remedies, and other           *
 * provisions.  The software products and documentation may be *
 * used, disclosed, transferred, or copied only in accordance  *
 * with the terms and conditions of that software license      *
 * agreement.                                                  *
 *                                                             *
 * ANSYS, Inc. is a UL registered                              *
 * ISO 9001:2015 company.                                      *
 *                                                             *
 ***************************************************************
 *                                                             *
 * This product is subject to U.S. laws governing export and   *
 * re-export.                                                  *
 *                                                             *
 * For U.S. Government users, except as specifically granted   *
 * by the ANSYS, Inc. software license agreement, the use,     *
 * duplication, or disclosure by the United States Government  *
 * is subject to restrictions stated in the ANSYS, Inc.        *
 * software license agreement and FAR 12.212 (for non-DOD      *
 * licenses).                                                  *
 *                                                             *
 ***************************************************************

 2019 R2 
     
 Point Releases and Patches installed:   
     
 ANSYS, Inc. Products 2019 R2
 SpaceClaim 2019 R2  
 AIM 2019 R2 
 Live (includes SpaceClaim) 2019 R2  
 Autodyn 2019 R2 
 LS-DYNA 2019 R2 
 Customization Files for User Programmable Features 2019 R2  
 Mechanical Products 2019 R2 
 Additive 2019 R2
 ACIS Geometry Interface 2019 R2 
 AutoCAD Geometry Interface 2019 R2  
 Catia, Version 4 Geometry Interface 2019 R2 
 Catia, Version 6 Geometry Interface 2019 R2 
 Creo Elements/Direct Modeling Geometry Interface 2019 R2
 Creo Parametric Geometry Interface 2019 R2  
 Inventor Geometry Interface 2019 R2 
 JTOpen Geometry Interface 2019 R2   
 NX Geometry Interface 2019 R2   
 Parasolid Geometry Interface  2019 R2   
 Solid Edge Geometry Interface 2019 R2   
 SOLIDWORKS Geometry Interface 2019 R2   
 ANSYS, Inc. License Manager 2019 R2 


          *****  ANSYS COMMAND LINE ARGUMENTS  *****
  INITIAL JOBNAME              = BESO_APPLICATION                                                                                                                                                                                                                                        
  BATCH MODE REQUESTED (-b)    = LIST
  INPUT FILE COPY MODE (-c)    = COPY
  DISTRIBUTED MEMORY PARALLEL REQUESTED
      12 PARALLEL PROCESSES REQUESTED WITH SINGLE THREAD PER PROCESS
    TOTAL OF    12 CORES REQUESTED
  MPI OPTION                   = INTELMPI
  INPUT FILE NAME              = C:\Users\Suleyman\Documents\01_DER_BESO_OPT\BESO-in-ANSYS\beso_2020.in
  OUTPUT FILE NAME             = C:\Users\Suleyman\Documents\01_DER_BESO_OPT\BESO-in-ANSYS\test1.out
  START-UP FILE MODE           = READ  
  STOP FILE MODE               = READ  
  LANGUAGE                     = en-us               
  INITIAL DIRECTORY = C:\Users\Suleyman\Documents\01_DER_BESO_OPT\BESO-in-ANSYS

 RELEASE= 2019 R2              BUILD= 19.4      UP20190416   VERSION=WINDOWS x64 
 CURRENT JOBNAME=BESO_APPLICATION0  23:46:12  JAN 11, 2026 CP=      0.125

     1  ! ========================================================================  
     2  ! ANSYS APDL Code for BESO with Dual P-Norm Aggregation 
     3  ! Augmented Lagrangian Optimization 
     4  ! ========================================================================  
     5  ! Features: 
     6  ! - Analytical compliance sensitivity   
     7  ! - P-norm aggregated stress constraint with analytical sensitivity 
     8  ! - P-norm aggregated displacement constraint with analytical sensitivity   
     9  ! - All constraints active from iteration 1 
    10  ! - Volume, stress, and displacement constraints
    11  ! - Design/Passive domain management
    12  ! - FULLY ANALYTICAL - NO NUMERICAL DIFFERENTIATION 
    13  ! ========================================================================  
    14  !   
    15  ! P-NORM AGGREGATION METHOD - THEORETICAL BACKGROUND
    16  ! ===================================================   
    17  !   
    18  ! The p-norm aggregation provides a smooth, differentiable approximation
    19  ! to maximum constraints, enabling efficient analytical sensitivity 
    20  ! computation without expensive numerical differentiation.  
    21  !   
    22  ! STRESS FORMULATION:   
    23  ! -------------------   
    24  ! Instead of max(σ_i) ≤ σ_limit, we use:
    25  !   σ_pnorm = σ_ref × (Σ(σ_i/σ_ref)^p)^(1/p) ≤ σ_limit 
    26  !   
    27  ! DISPLACEMENT FORMULATION: 
    28  ! ------------------------- 
    29  ! Instead of max(d_i) ≤ d_limit, we use:  
    30  !   d_pnorm = d_ref × (Σ(d_i/d_ref)^p)^(1/p) ≤ d_limit  
    31  ! where d_i = √(ux² + uy² + uz²) at each node  
    32  !   
    33  ! PROPERTIES:   
    34  ! -----------   
    35  ! • As p → ∞, p-norm → exact maximum
    36  ! • For stress: p = 8 typical (sharp local peaks) 
    37  ! • For displacement: p = 6 typical (smoother field distribution) 
    38  ! • Higher p = tighter bound but steeper gradients
    39  ! • Lower p = smoother but looser bound   
    40  !   
    41  ! ANALYTICAL SENSITIVITIES: 
    42  ! ------------------------- 
    43  ! Stress: ∂σ_pnorm/∂x_i = (σ_i/σ_pnorm)^(p-1) × (σ_ref/σ_pnorm) × ∂σ_i/∂x_i 
    44  ! Displ:  ∂d_pnorm/∂x_e = Σ_nodes[(d_j/d_pnorm)^(p-1) × (d_ref/d_pnorm) × ∂d_j/∂x_e] 
    45  !   
    46  ! COMPUTATIONAL EFFICIENCY: 
    47  ! ------------------------- 
    48  ! Numerical differentiation:  2N FEA solves per iteration (stress + displ)  
    49  ! Dual P-norm aggregation:    1 FEA solve per iteration 
    50  ! Speedup factor:             ~2N (e.g., 3000× for N=1500 elements)
    51  !   
    52  ! REFERENCES:   
    53  ! -----------   
    54  ! 1. Kennedy, G.J. & Hicken, J.E. (2015)
    55  !    "Improved constraint-aggregation methods"  
    56  !    Computer Methods in Applied Mechanics and Engineering, 289, 332-354
    57  !    DOI: 10.1016/j.cma.2015.02.017 
    58  !   
    59  ! 2. Le, C., Norato, J., Bruns, T., Ha, C., & Tortorelli, D. (2010) 
    60  !    "Stress-based topology optimization for continua"  
    61  !    Structural and Multidisciplinary Optimization, 41(4), 605-620  
    62  !    DOI: 10.1007/s00158-009-0424-y 
    63  !   
    64  ! 3. París, J., Navarrina, F., Colominas, I., & Casteleiro, M. (2009)  
    65  !    "Topology optimization of continuum structures with local and  
    66  !     global stress constraints"
    67  !    Structural and Multidisciplinary Optimization, 39(4), 419-437  
    68  !    DOI: 10.1007/s00158-008-0336-2 
    69  !   
    70  ! 4. Holmberg, E., Torstenfelt, B., & Klarbring, A. (2013)  
    71  !    "Stress constrained topology optimization" 
    72  !    Structural and Multidisciplinary Optimization, 48(1), 33-47
    73  !    DOI: 10.1007/s00158-012-0880-7 
    74  !   
    75  ! 5. da Silva, G.A., Beck, A.T., & Sigmund, O. (2019)   
    76  !    "Stress-constrained topology optimization considering uniform  
    77  !     manufacturing uncertainties"  
    78  !    Computer Methods in Applied Mechanics and Engineering, 344, 512-537
    79  !    DOI: 10.1016/j.cma.2018.10.020 
    80  !   
    81  ! 6. Kreisselmeier, G. & Steinhauser, R. (1979) 
    82  !    "Systematic Control Design by Optimizing a Vector Performance Index"   
    83  !    IFAC Symposium on Computer Aided Design of Control Systems 
    84  !   
    85  ! ========================================================================  
    86  /BATCH  
    87  FINISH  
    88  /CLEAR, NOSTART 
    89      
    90  /FILENAME, beso_2020, 1 
    91  /COM, BESO Topology Optimization with Augmented Lagrange for Volume, Stress and Displacement Constraints
    92  /COM, Modified by Suleyman Yasayanlar 2026  
    93  /COM, Be aware of units used in the model (N, mm)   
    94  /COM, Be aware of material numbers for design and passive domains   
    95  /COM, Material 1 : Design Material  
    96  /COM, Material 2 : Void Material
    97  /COM, If submodel please add cut BCs in Section 3   
    98      
    99  /COM, Clear all previous data   
   100  ! Delete old result files   
   101  /SYS, del *.esav
   102  /SYS, del *.full
   103  /SYS, del *.mntr
   104  /SYS, del *.page
   105  /SYS, del *.rst 
   106  /SYS, del *.stat
   107  /SYS, del *.db  
   108  /SYS, del *.lock
   109  ! ========================================================================  
   110  ! SECTION 1: INPUT PARAMETERS   
   111  !  MATERIAL PROPERTIES, MESH SIZE, BESO PARAMETERS  
   112  ! ========================================================================  
   113  ! ---   Constants   --- 
   114  _PI = acos(-1)  
   115  eps_machine = 1E-16            ! Machine epsilon for numerical differentiation  
   116      
   117  ! --- Material Properties ---   
   118  E_design       = 200e3               ! Young's Modulus (MPa)
   119  nu_design      = 0.3                 ! Poisson's Ratio  
   120  void_param     = 1e-9                ! Void material parameter  
   121  E_void         = void_param*E_design       ! Void Young's Modulus (MPa) 
   122  nu_void        = nu_design           ! Void Poisson's Ratio 
   123      
   124  ! --- Mesh Parameters ---   
   125  /COM, Element size and filter radius must be double checked with FEA model  
   126  esize_ = 20                     ! Element size (mm) 
   127  Rmin  = esize_*1.5              ! Filter radius for sensitivity smoothing   
   128      
   129  ! --- BESO Parameters ---   
   130  volfrac = 0.25                 ! Target volume fraction (25%)   
   131  ER      = 0.05                 ! Evolution rate (5% per iteration)  
   132  maxIter = 100                  ! Maximum number of iterations   
   133  convTol = 0.002                ! Convergence tolerance (0.2%)   
   134  conv_window = 5                ! Convergence window (iterations)
   135  xmin    = 0.001                ! Minimum density to avoid singularity   
   136      
   137  ! --- Constraint Parameters --- 
   138  stress_limit = 420             ! Maximum allowable von Mises stress (Pa) = 420 MPa  
   139  displ_limit_RMS = 50           ! RMS displacement limit (mm)
   140  tol_constraint = 0.05          ! Constraint tolerance (5% violation acceptable) 
   141      
   142  ! --- P-Norm Aggregation Parameters --- 
   143  p_norm_stress = 8.0            ! P-norm for stress (recommended: 6-12)  
   144                                 ! p=6:  smoother, ~15-20% error  
   145                                 ! p=8:  balanced, ~5-10% error (RECOMMENDED) 
   146                                 ! p=10: tighter, ~2-5% error 
   147                                 ! p=12: very tight, ~1-3% error (may be stiff)   
   148      
   149  p_norm_displ = 6.0             ! P-norm for displacement (recommended: 4-8) 
   150                                 ! Lower p for displacement (smoother field)  
   151                                 ! p=4:  very smooth, ~20-30% error   
   152                                 ! p=6:  balanced (RECOMMENDED)   
   153                                 ! p=8:  tight, ~5-10% error  
   154      
   155  sigma_ref = stress_limit       ! Reference stress for normalization 
   156  displ_ref = displ_limit_RMS    ! Reference displacement for normalization   
   157      
   158  ! --- Augmented Lagrangian Parameters ---   
   159  lambda_stress = 0              ! Stress constraint multiplier   
   160  lambda_displ = 0               ! Displacement constraint multiplier 
   161      
   162  mu_stress = 1E-8               ! Stress penalty parameter   
   163  mu_displ = 1E-8                ! Displacement penalty parameter 
   164  mu_max = 1E-4                  ! Maximum penalty parameter  
   165  mu_update = 10                 ! Penalty update factor  
   166  lambda_update = 0.5            ! Lagrange multiplier update rate
   167      
   168  ! --- LCF (Low Cycle Fatigue) Constraint Parameters (COMMENTED OUT - TO BE IMPLEMENTED) --- 
   169  ! lcf_cycles_min = 1000         ! Minimum required LCF life (cycles)
   170  ! p_norm_lcf = 6.0              ! P-norm for LCF aggregation (recommended: 4-8) 
   171  ! lambda_lcf = 0                ! LCF constraint multiplier 
   172  ! mu_lcf = 1E-8                 ! LCF penalty parameter 
   173  ! stress_mean = 0               ! Mean stress for LCF calculation (MPa) 
   174  ! stress_amplitude_ref = 200E6  ! Reference stress amplitude (Pa)   
   175  ! temperature = 293             ! Operating temperature (K) for LCF 
   176  ! material_b = -0.12            ! Fatigue strength exponent (typical for steel) 
   177  ! material_c = -0.6             ! Fatigue ductility exponent (typical for steel)
   178  ! material_Sf_prime = 1000E6    ! Fatigue strength coefficient (Pa) 
   179  ! material_Ef_prime = 0.5       ! Fatigue ductility coefficient 
   180  !   
   181  ! LCF FORMULATION:  
   182  ! ----------------  
   183  ! Basquin-Coffin-Manson equation:   
   184  !   Δε/2 = (σ'_f/E)(2N)^b + ε'_f(2N)^c  
   185  !   
   186  ! P-norm aggregation for minimum life:  
   187  !   N_pnorm = N_ref × (Σ(N_ref/N_i)^p)^(1/p)  
   188  !   Constraint: N_pnorm ≥ N_min   
   189  !   
   190  ! REFERENCES:   
   191  !   - Suresh, S. (1998). "Fatigue of Materials" Cambridge University Press  
   192  !   - Dowling, N.E. (2012). "Mechanical Behavior of Materials" Pearson  
   193  !   - Holmen, J.K. et al. (2017). "Topology optimization with fatigue   
   194  !     constraints" Structural and Multidisciplinary Optimization, 56(5) 
   195      
   196  /COM, ========================================================================  
   197  /PREP7  
   198  ! --- Define Material ---   
   199  ! material 1 : Design Material  
   200  ! material 2 : Void Material
   201  MPTEMP,,,,,,,,  
   202  MPTEMP,1,0  
   203  MPDATA,EX,1,,E_design   
   204  MPDATA,PRXY,1,,nu_design
   205      
   206  MPTEMP,,,,,,,,  
   207  MPTEMP,1,0  
   208  MPDATA,EX,2,,E_void 
   209  MPDATA,PRXY,2,,nu_void  
   210      
   211  ALLSEL  
   212  FINISH  
   213  ! ========================================================================  
   214  ! SECTION 2: READ MODEL AND INITIAL MESH
   215  ! BE AWARE OF UNITS USED IN THE MODEL (N, mm)   
   216  ! GE case : IN and PSI  
   217  ! ========================================================================  
   218  /input, simple_block, cdb, '.'  
   219  /PREP7  
   220  ALLSEL  
   221      
   222  /COM, For initial study all numberings are reset
   223  NUMCMP,ALL  
   224      
   225  EPLOT   
   226  /title, Initial Mesh -- BESO Topology Optimization with Augmented Lagrange (N.mm)   
   227  FINISH  
   228      
   229  ! ========================================================================  
   230  ! SECTION 3: APPLY MATERIALS, BOUNDARY CONDITIONS AND LOADS 
   231  ! If this is a submodel this is location where you apply Cut BCs
   232  ! ========================================================================  
   233  ALLSEL  
   234  /PREP7  
   235  ! --- Assign Material to Elements ---   
   236  /COM, If you have other domains please assign materials accordingly 
   237  ESEL,ALL
   238  EMODIF,ALL,,MAT,1   
   239      
   240  ! --- Boundary Conditions ---   
   241  ! --- User must update these based on model --- 
   242  nsel,s,,,FIXED_BC   
   243  d,all,all,0 
   244      
   245  nsel,s,,,FORCE_BC   
   246  F,all,fz,-1e7/16      ! Total force of -1e7 N distributed over 16 nodes 
   247      
   248  ALLSEL  
   249  FINISH  
   250  ! ========================================================================  
   251  ! SECTION 4: INITIALIZE ARRAYS AND VARIABLES
   252  ! ========================================================================  
   253  /PREP7  
   254  ALLSEL  
   255      
   256  ! Get element and node counts   
   257  *GET, numElem, ELEM, 0, COUNT   
   258  *GET, numNode, NODE, 0, COUNT   
   259      
   260  ESEL,s,,,DESIGN_DOMAIN  
   261  *GET, numDesignElem, ELEM, 0, COUNT 
   262  ALLSEL  
   263      
   264  ESEL,s,,,PASSIVE_REGION 
   265  *GET, numPassiveElem, ELEM, 0, COUNT
   266  ALLSEL  
   267      
   268  /COM, ========================================  
   269  /COM, BESO WITH DUAL P-NORM AGGREGATION 
   270  /COM, Total Elements: %numElem% 
   271  /COM, Total Nodes: %numNode%
   272  /COM, Design Domain Elements: %numDesignElem%   
   273  /COM, Passive Region Elements: %numPassiveElem% 
   274  /COM, Units are N and mm
   275  /COM, For later cases we can use in and psi units   
   276  /COM, Volume Fraction Target: %volfrac% 
   277  /COM, Evolution Rate: %ER% per iteration
   278  /COM, Maximum Iterations: %maxIter% 
   279  /COM, Convergence Tolerance: %convTol%  
   280  /COM, P-Norm Stress: %p_norm_stress%
   281  /COM, P-Norm Displacement: %p_norm_displ%   
   282  /COM, Stress Limit: %stress_limit% MPa  
   283  /COM, Displacement Limit: %displ_limit_RMS% mm  
   284  /COM, ========================================  
   285      
   286  ! --- Element density and sensitivity arrays ---
   287  *DIM, xe, ARRAY, numElem
   288  *DIM, sensit_C, ARRAY, numElem              ! Compliance sensitivity
   289  *DIM, sensit_g_stress, ARRAY, numElem       ! P-norm stress sensitivity 
   290  *DIM, sensit_g_displ, ARRAY, numElem        ! P-norm displacement sensitivity   
   291  *DIM, sensit_combined, ARRAY, numElem   
   292  *DIM, sensit_filt, ARRAY, numElem   
   293  *DIM, sensit_old, ARRAY, numElem
   294      
   295  ! --- Element geometry arrays ---   
   296  *DIM, elemCenX, ARRAY, numElem  
   297  *DIM, elemCenY, ARRAY, numElem  
   298  *DIM, elemCenZ, ARRAY, numElem  
   299  *DIM, elemVol, ARRAY, numElem   
   300      
   301  ! --- Optimization history arrays ---   
   302  *DIM, compliance, ARRAY, maxIter
   303  *DIM, volHistory, ARRAY, maxIter
   304  *DIM, stressPnormHistory, ARRAY, maxIter    ! P-norm aggregated stress  
   305  *DIM, maxStressHistory, ARRAY, maxIter      ! Actual maximum (for comparison)   
   306  *DIM, displPnormHistory, ARRAY, maxIter     ! P-norm aggregated displacement
   307  *DIM, maxDisplHistory, ARRAY, maxIter       ! Actual maximum displacement   
   308      
   309  ! --- Augmented Lagrangian tracking --- 
   310  *DIM, lambdaStressHistory, ARRAY, maxIter   
   311  *DIM, lambdaDisplHistory, ARRAY, maxIter
   312  *DIM, muStressHistory, ARRAY, maxIter   
   313  *DIM, muDisplHistory, ARRAY, maxIter
   314  *DIM, g_stressHistory, ARRAY, maxIter   
   315  *DIM, g_displHistory, ARRAY, maxIter
   316  *DIM, g_volHistory, ARRAY, maxIter  
   317  *DIM, pnormErrorStress, ARRAY, maxIter      ! P-norm stress approximation error 
   318  *DIM, pnormErrorDispl, ARRAY, maxIter       ! P-norm displ approximation error  
   319      
   320  ! --- Constraint arrays --- 
   321  *DIM, elemStress, ARRAY, numElem
   322      
   323  ! --- LCF arrays (COMMENTED OUT - TO BE IMPLEMENTED) ---
   324  ! *DIM, elemLCF, ARRAY, numElem             ! LCF life (cycles) per element 
   325  ! *DIM, elemStressAmp, ARRAY, numElem       ! Stress amplitude per element  
   326  ! *DIM, sensit_g_lcf, ARRAY, numElem        ! LCF constraint sensitivity
   327  ! *DIM, lcfPnormHistory, ARRAY, maxIter     ! P-norm aggregated LCF life
   328  ! *DIM, minLCFHistory, ARRAY, maxIter       ! Minimum LCF life (for comparison) 
   329  ! *DIM, lambdaLCFHistory, ARRAY, maxIter    ! LCF multiplier history
   330  ! *DIM, muLCFHistory, ARRAY, maxIter        ! LCF penalty history   
   331  ! *DIM, g_lcfHistory, ARRAY, maxIter        ! LCF constraint violation  
   332  ! *DIM, pnormErrorLCF, ARRAY, maxIter       ! LCF p-norm approximation error
   333      
   334  ! --- Nodal displacement arrays --- 
   335  *DIM, nodeDispX, ARRAY, numNode 
   336  *DIM, nodeDispY, ARRAY, numNode 
   337  *DIM, nodeDispZ, ARRAY, numNode 
   338  *DIM, nodeDisplMag, ARRAY, numNode          ! Displacement magnitude per node   
   339      
   340  ! --- BC nodes flag --- 
   341  *DIM, isBCNode, ARRAY, numNode  
   342      
   343  ! --- Estimate max neighbors per element based on filter radius --- 
   344  numNeighIncrease = 100                          ! Safety buffer for neighbor count  
   345  maxNeighbors = NINT((4/3)*_PI*(Rmin/esize_)**3)*4 + numNeighIncrease
   346  maxNeighbors = maxNeighbors + numNeighIncrease  ! Ensure enough space   
   347  *DIM, neighCount, ARRAY, numElem                ! Number of neighbors for each element  
   348  *DIM, neighList, ARRAY, numElem, maxNeighbors   ! Neighbor element indices  
   349  *DIM, neighWeight, ARRAY, numElem, maxNeighbors ! Neighbor weights (cone filter)
   350      
   351  *DIM, isDesign, ARRAY, numElem     ! Design domain flag (1=design, 0=passive)   
   352      
   353  ! Initialize all elements as solid (xe = 1) 
   354  *VFILL, xe(1), RAMP, 1.0, 0 
   355      
   356  ! Store element centroids and volumes   
   357  ALLSEL  
   358  *VGET, elemCenX(1), ELEM, 1, CENT, X
   359  *VGET, elemCenY(1), ELEM, 1, CENT, Y
   360  *VGET, elemCenZ(1), ELEM, 1, CENT, Z
   361  *VGET, elemVol(1), ELEM, 1, GEOM           ! Element volume 
   362      
   363      
   364  ! ========================================================================  
   365  ! PRE-COMPUTE NEIGHBOR LIST FOR SENSITIVITY FILTER  
   366  ! ========================================================================  
   367  allsel  
   368  /COM, Pre-computing neighbor list for 3D filter...  
   369  *DO, i, 1, numElem  
   370      neighCount(i) = 0   
   371      
   372      ! Get center of current element 
   373      cx_i = elemCenX(i)  
   374      cy_i = elemCenY(i)  
   375      cz_i = elemCenZ(i)  
   376      
   377      ! Select nodes within filter radius using spatial queries   
   378      ALLSEL  
   379      NSEL, S, LOC, X, cx_i - Rmin, cx_i + Rmin   
   380      NSEL, R, LOC, Y, cy_i - Rmin, cy_i + Rmin   
   381      NSEL, R, LOC, Z, cz_i - Rmin, cz_i + Rmin   
   382      
   383      ! Select elements attached to these nodes   
   384      ESLN, S, 1  
   385      
   386      ! Get the count of selected elements
   387      *GET, numNeigh, ELEM, 0, COUNT  
   388      
   389      ! Loop over selected neighbor elements and calculate weights
   390      *IF, numNeigh, GT, 0, THEN  
   391          *GET, j, ELEM, 0, NUM, MIN  
   392      
   393          *DO, k, 1, numNeigh 
   394              ! Calculate 3D distance from current element to neighbor
   395              dx = elemCenX(j) - cx_i 
   396              dy = elemCenY(j) - cy_i 
   397              dz = elemCenZ(j) - cz_i 
   398              dist = SQRT(dx*dx + dy*dy + dz*dz)  
   399      
   400              ! If within filter radius, store neighbor and weight
   401              *IF, dist, LT, Rmin, THEN   
   402                  neighCount(i) = neighCount(i) + 1   
   403                  nc = neighCount(i)  
   404      
   405                  ! Store neighbor ID and weight (cone filter: w = Rmin - dist)   
   406                  neighList(i, nc) = j
   407                  neighWeight(i, nc) = Rmin - dist
   408      
   409                  ! Safety check: don't exceed array size 
   410                  *IF, nc, GE, maxNeighbors, THEN 
   411                      *EXIT   
   412                  *ENDIF  
   413              *ENDIF  
   414      
   415              ! Get next element in selection 
   416              *IF, k, LT, numNeigh, THEN  
   417                  *GET, j, ELEM, j, NXTH  
   418              *ENDIF  
   419          *ENDDO  
   420      *ENDIF  
   421      
   422      ! Progress indicator
   423      *IF, MOD(i, 500), EQ, 0, THEN   
   424          /COM, Processed element %i% of %numElem%
   425      *ENDIF  
   426  *ENDDO  
   427      
   428  ALLSEL  
   429  /COM, Neighbor list computed.   
   430      
   431  ! ========================================================================  
   432  ! SECTION 4.1: DEFINE DESIGN AND PASSIVE REGIONS
   433  ! ========================================================================  
   434  numDesignElem = 0                 ! Counter for design elements 
   435  numPassiveElem = 0                ! Counter for passive elements
   436      
   437  ! if isDesign(i) = 1 then element is in design domain   
   438  ! else in passive region
   439  ! Initialize all elements in design domain  
   440  *VFILL, isDesign(1), RAMP, 1.0, 0   
   441      
   442  ! update isDesign array based on geometry   
   443  ! here only change passive region near BC and load point
   444  ! be aware those must be defined in set.
   445  ! Passive element set: PASSIVE_REGION   
   446  esel,s,,,PASSIVE_REGION 
   447  *GET, numPassiveElem, ELEM, NUM, COUNT  
   448  *get, curr_elem, ELEM, 0, NUM, MIN  
   449      
   450  *DO, i, 1, numPassiveElem   
   451      isDesign(curr_elem) = 0 
   452      *GET, curr_elem, ELEM, curr_elem, NXTH  
   453      numPassiveElem = numPassiveElem + 1 
   454  *ENDDO  
   455      
   456  esel,s,,,DESIGN_DOMAIN  
   457  *GET, numDesignElem, ELEM, NUM, COUNT   
   458      
   459  /COM, ========================================  
   460  /COM, ELEMENT & NODE NUMBERS ARE RESET INITALLY 
   461  /COM, DOMAIN INFORMATION:   
   462  /COM, Total Elements: %numElem% 
   463  /COM, Design Elements: %numDesignElem%  
   464  /COM, Passive Elements: %numElem - numDesignElem%   
   465  /COM, ========================================  
   466      
   467  ! Create design element index list for fast iteration   
   468  *DIM, designElemIdx, ARRAY, numDesignElem   ! Indices of design elements
   469  idx = 0 
   470      
   471  esel,s,,,DESIGN_DOMAIN  
   472  *GET, n_el, ELEM, NUM, COUNT
   473  *get, curr_elem, ELEM, 0, NUM, MIN  
   474      
   475  *DO, i, 1, n_el 
   476      idx = idx + 1   
   477      designElemIdx(idx) = curr_elem  
   478      *GET, curr_elem, ELEM, curr_elem, NXTH  
   479  *ENDDO  
   480      
   481  ALLSEL  
   482      
   483  ! Initialize volume 
   484  totalVol   = numDesignElem  
   485  currentVol = numDesignElem  
   486      
   487  FINISH  
   488      
   489  /COM, ========================================================================  
   490  /COM, DESIGN SETUP COMPLETE. READY FOR OPTIMIZATION LOOP.   
   491  /COM, PLEASE CHECK BCs, LOADS, MATERIALS BEFORE PROCEEDING. 
   492  /COM, ELEMENTS IN DESIGN DOMAIN: %numDesignElem%
   493  /COM, ELEMENTS IN PASSIVE REGION: %numPassiveElem%  
   494  /COM, OPTIMIZATION WILL BE PERFORMED IN DESIGN_DOMAIN ONLY. 
   495  /COM, IF YOU WANT YOU CAN ALWAYS TWEAK OPTIMIZATION PARAMETERS IN beso_2020.in  
   496  /COM, ========================================================================  
   497      
   498  ! ========================================================================  
   499  ! SECTION 4.2: INITIALIZE CSV OUTPUT FILES  
   500  ! ========================================================================  
   501  ! TODO: Update CSV headers for new variables
   502      
   503  ! ========================================================================  
   504  ! SECTION 5: MAIN BESO OPTIMIZATION LOOP - ALL CONSTRAINTS ACTIVE   
   505  ! ========================================================================  
   506  change = 0          ! Initialize change variable
   507  converged = 0       ! Convergence flag (0=no, 1=yes)
   508      
   509  /COM, ========================================  
   510  /COM, STARTING BESO OPTIMIZATION - ALL CONSTRAINTS ACTIVE   
   511  /COM, ========================================  
   512      
   513  *DO, iter, 1, maxIter ! limit iterations for only 1 to cechk errors initially   
   514      ! ==================================================================
   515      ! 5.1: UPDATE MATERIAL PROPERTIES BASED ON ELEMENT DENSITIES
   516      ! ==================================================================
   517      /PREP7  
   518      
   519      ! Passive elements always solid 
   520      cmsel,s,PASSIVE_REGION  
   521      emodif,all,mat,1
   522      
   523      esel,s,,,DESIGN_DOMAIN  
   524      *GET, n_el, ELEM, NUM, COUNT
   525      *get, curr_elem, ELEM, 0, NUM, MIN  
   526      
   527     ! Design elements: assign material based on density  
   528      *DO, i, 1, n_el 
   529          *if, xe(curr_elem), LT, 0.5, THEN   
   530              emodif,curr_elem,mat,2 ! void material  
   531          *ELSE   
   532              emodif,curr_elem,mat,1 ! solid material 
   533          *ENDIF  
   534          *GET, curr_elem, ELEM, curr_elem, NXTH  ! choose next element   
   535      *ENDDO  
   536      ALLSEL  
   537      FINISH  
   538      
   539      ! ==================================================================
   540      ! 5.2: SOLVE FEA (ONLY ONE SOLVE PER ITERATION!)
   541      ! ==================================================================
   542      /SOLU   
   543      ANTYPE, STATIC  
   544      NCNV, 1, , , , , 1E10   
   545      NEQIT, 100  
   546      SOLVE   
   547      FINISH  
   548      
   549      ! ==================================================================
   550      ! 5.3: POST-PROCESS WITH DUAL P-NORM AGGREGATION
   551      ! ==================================================================
   552      /POST1  
   553      SET, 1, LAST
   554      ! ===== select design domain only ===== 
   555      esel,s,,,DESIGN_DOMAIN  
   556      
   557      ! ===== COMPLIANCE (ANALYTICAL) =====   
   558      ETABLE, SENE_TAB, SENE  
   559      SSUM
   560      *GET, totalSENE, SSUM, , ITEM, SENE_TAB 
   561      compliance(iter) = 2*totalSENE  
   562      
   563      ! ALLSEL
   564      *VGET, sensit_C(1), ELEM, 1, ETAB, SENE_TAB 
   565      
   566      ! ===== P-NORM STRESS AGGREGATION ===== 
   567      ETABLE, SEQV_TAB, S, EQV
   568      ! ALLSEL
   569      *VGET, elemStress(1), ELEM, 1, ETAB, SEQV_TAB   
   570      
   571      ! Find actual maximum for comparison
   572      *VSCFUN, maxStress, MAX, elemStress(1)  
   573      maxStressHistory(iter) = maxStress  
   574      
   575      ! START DEBUG FROM HERE 
   576      ! START DEBUG FROM HERE 
   577      ! START DEBUG FROM HERE 
   578      ! START DEBUG FROM HERE 
   579      ! P-NORM AGGREGATION
   580      ! STRESS FORMULATION:   
   581      ! -------------------   
   582      ! Instead of max(σ_i) ≤ σ_limit, we use:
   583      !   σ_pnorm = σ_ref × (Σ(σ_i/σ_ref)^p)^(1/p) ≤ σ_limit 
   584      ! Compute p-norm aggregated stress  
   585      sum_pnorm_stress = 0
   586      *DO, i, 1, numElem  
   587          *IF, elemStress(i), GT, 1E-6, THEN  
   588              ratio_s = elemStress(i) / sigma_ref 
   589              sum_pnorm_stress = sum_pnorm_stress + ratio_s**p_norm_stress
   590          *ENDIF  
   591      *ENDDO  
   592      stress_pnorm = sigma_ref * (sum_pnorm_stress**(1/p_norm_stress))
   593      stressPnormHistory(iter) = stress_pnorm 
   594      
   595      ! Calculate stress approximation error  
   596      stress_error = (stress_pnorm - maxStress) / maxStress * 100 
   597      pnormErrorStress(iter) = stress_error   
   598      
   599      ! Stress constraint using p-norm
   600      g_stress = (stress_pnorm - stress_limit) / stress_limit 
   601      g_stressHistory(iter) = g_stress
   602      
   603      ! ===== P-NORM ANALYTICAL STRESS SENSITIVITY =====  
   604      *DO, i, 1, numElem  
   605          *IF, elemStress(i), GT, 1E-6, THEN  
   606              ratio_stress = elemStress(i) / stress_pnorm 
   607              power_term_s = ratio_stress**(p_norm_stress - 1)
   608              norm_term_s = sigma_ref / stress_pnorm  
   609              dstress_dx = elemStress(i)  
   610              sensit_g_stress(i) = power_term_s * norm_term_s * dstress_dx / stress_limit 
   611      
   612              *IF, xe(i), LT, 0.5, THEN   
   613                  sensit_g_stress(i) = sensit_g_stress(i) * 0.1   
   614              *ENDIF  
   615          *ELSE   
   616              sensit_g_stress(i) = 0  
   617          *ENDIF  
   618      *ENDDO  
   619      
   620      ! ===== EXTRACT NODAL DISPLACEMENTS =====   
   621      ALLSEL  
   622      *VGET, nodeDispX(1), NODE, 1, U, X  
   623      *VGET, nodeDispY(1), NODE, 1, U, Y  
   624      *VGET, nodeDispZ(1), NODE, 1, U, Z  
   625      
   626      ! Identify BC nodes 
   627      CMSEL, S, FIXED_BC  
   628      *GET, numBCNodes, NODE, 0, COUNT
   629      
   630      *IF, numBCNodes, GT, 0, THEN
   631          *VFILL, isBCNode(1), RAMP, 0, 0 
   632          *GET, bcNode, NODE, 0, NUM, MIN 
   633          *DO, ii, 1, numBCNodes  
   634              isBCNode(bcNode) = 1
   635              *IF, ii, LT, numBCNodes, THEN   
   636                  *GET, bcNode, NODE, bcNode, NXTH
   637              *ENDIF  
   638          *ENDDO  
   639      *ENDIF  
   640      
   641      ALLSEL  
   642      
   643      ! ===== P-NORM DISPLACEMENT AGGREGATION =====   
   644      ! Calculate displacement magnitude for each node
   645      *GET, firstNode, NODE, 0, NUM, MIN  
   646      nodeID = firstNode  
   647      maxDispl = 0
   648      
   649      *DO, ii, 1, numNode 
   650          *IF, numBCNodes, GT, 0, THEN
   651              *IF, isBCNode(nodeID), EQ, 0, THEN  
   652                  ux = nodeDispX(nodeID)  
   653                  uy = nodeDispY(nodeID)  
   654                  uz = nodeDispZ(nodeID)  
   655                  nodeDisplMag(nodeID) = SQRT(ux*ux + uy*uy + uz*uz)  
   656                  *IF, nodeDisplMag(nodeID), GT, maxDispl, THEN   
   657                      maxDispl = nodeDisplMag(nodeID) 
   658                  *ENDIF  
   659              *ELSE   
   660                  nodeDisplMag(nodeID) = 0
   661              *ENDIF  
   662          *ELSE   
   663              ux = nodeDispX(nodeID)  
   664              uy = nodeDispY(nodeID)  
   665              uz = nodeDispZ(nodeID)  
   666              nodeDisplMag(nodeID) = SQRT(ux*ux + uy*uy + uz*uz)  
   667              *IF, nodeDisplMag(nodeID), GT, maxDispl, THEN   
   668                  maxDispl = nodeDisplMag(nodeID) 
   669              *ENDIF  
   670          *ENDIF  
   671          *IF, ii, LT, numNode, THEN  
   672              *GET, nodeID, NODE, nodeID, NXTH
   673          *ENDIF  
   674      *ENDDO  
   675      
   676      maxDisplHistory(iter) = maxDispl
   677      
   678      ! Compute p-norm aggregated displacement
   679      sum_pnorm_displ = 0 
   680      *GET, firstNode, NODE, 0, NUM, MIN  
   681      nodeID = firstNode  
   682      
   683      *DO, ii, 1, numNode 
   684          *IF, nodeDisplMag(nodeID), GT, 1E-12, THEN  
   685              ratio_d = nodeDisplMag(nodeID) / displ_ref  
   686              sum_pnorm_displ = sum_pnorm_displ + ratio_d**p_norm_displ   
   687          *ENDIF  
   688          *IF, ii, LT, numNode, THEN  
   689              *GET, nodeID, NODE, nodeID, NXTH
   690          *ENDIF  
   691      *ENDDO  
   692      
   693      displ_pnorm = displ_ref * (sum_pnorm_displ**(1/p_norm_displ))   
   694      displPnormHistory(iter) = displ_pnorm   
   695      
   696      ! Calculate displacement approximation error
   697      displ_error = (displ_pnorm - maxDispl) / maxDispl * 100 
   698      pnormErrorDispl(iter) = displ_error 
   699      
   700      ! Displacement constraint using p-norm  
   701      g_displ = (displ_pnorm - displ_limit_RMS) / displ_limit_RMS 
   702      g_displHistory(iter) = g_displ  
   703      
   704      /COM, ========================================  
   705      /COM, Iter %iter% Analysis: 
   706      /COM, Compliance = %compliance(iter)%   
   707      /COM, Max Stress = %maxStress% MPa, P-norm = %stress_pnorm% MPa (Error: %stress_error% pct) 
   708      /COM, Max Displ = %maxDispl% mm, P-norm = %displ_pnorm% mm (Error: %displ_error% pct)   
   709      /COM, g_stress = %g_stress*100% pct, g_displ = %g_displ*100% pct
   710      /COM, ========================================  
   711      
   712      ! ===== LCF (LOW CYCLE FATIGUE) CONSTRAINT (COMMENTED OUT - TO BE IMPLEMENTED) =====
   713      ! Calculate LCF life for each element using stress results  
   714      !   
   715      ! *DO, i, 1, numElem
   716      !     *IF, elemStress(i), GT, 1E-6, THEN
   717      !         ! Assume stress amplitude = von Mises / 2 (simplified)
   718      !         elemStressAmp(i) = elemStress(i) / 2.0
   719      !   
   720      !         ! Basquin-Coffin-Manson equation (elastic + plastic)  
   721      !         ! Δε/2 = (σ'_f/E)(2N)^b + ε'_f(2N)^c  
   722      !         ! Simplified: solve for N using stress amplitude  
   723      !   
   724      !         stress_ratio = elemStressAmp(i) / material_Sf_prime   
   725      !   
   726      !         ! Elastic component dominates for HCF, plastic for LCF
   727      !         ! Simplified calculation: 2N = (σ_a/σ'_f)^(1/b) 
   728      !         two_N = (stress_ratio)**(1.0/material_b)  
   729      !         elemLCF(i) = two_N / 2.0  
   730      !   
   731      !         ! Floor at 1 cycle to avoid numerical issues  
   732      !         *IF, elemLCF(i), LT, 1, THEN  
   733      !             elemLCF(i) = 1
   734      !         *ENDIF
   735      !     *ELSE 
   736      !         elemLCF(i) = 1E10  ! Very high life for low stress
   737      !     *ENDIF
   738      ! *ENDDO
   739      !   
   740      ! ! Find minimum LCF life   
   741      ! *VSCFUN, minLCF, MIN, elemLCF(1)  
   742      ! minLCFHistory(iter) = minLCF  
   743      !   
   744      ! ! P-norm aggregation for minimum life (inverted)  
   745      ! ! We want N_pnorm ≥ N_min, so aggregate 1/N instead 
   746      ! sum_pnorm_lcf = 0 
   747      ! lcf_ref = lcf_cycles_min  
   748      !   
   749      ! *DO, i, 1, numElem
   750      !     *IF, elemLCF(i), GT, 1, THEN  
   751      !         ! Aggregate reciprocal: Σ(N_ref/N_i)^p   
   752      !         ratio_lcf = lcf_ref / elemLCF(i)  
   753      !         sum_pnorm_lcf = sum_pnorm_lcf + ratio_lcf**p_norm_lcf 
   754      !     *ENDIF
   755      ! *ENDDO
   756      !   
   757      ! ! Inverse p-norm: N_pnorm = N_ref / (Σ(N_ref/N_i)^p)^(1/p)   
   758      ! lcf_pnorm = lcf_ref / (sum_pnorm_lcf**(1.0/p_norm_lcf))   
   759      ! lcfPnormHistory(iter) = lcf_pnorm 
   760      !   
   761      ! ! LCF error   
   762      ! lcf_error = (minLCF - lcf_pnorm) / minLCF * 100   
   763      ! pnormErrorLCF(iter) = lcf_error   
   764      !   
   765      ! ! LCF constraint: g_lcf = (N_min - N_pnorm) / N_min   
   766      ! ! Negative g_lcf means constraint satisfied   
   767      ! g_lcf = (lcf_cycles_min - lcf_pnorm) / lcf_cycles_min 
   768      ! g_lcfHistory(iter) = g_lcf
   769      !   
   770      ! /COM, LCF Analysis:   
   771      ! /COM, Min LCF Life = %minLCF% cycles  
   772      ! /COM, P-norm LCF Life = %lcf_pnorm% cycles
   773      ! /COM, LCF Constraint: g_lcf = %g_lcf*100% pct 
   774      
   775      ! ===== P-NORM ANALYTICAL DISPLACEMENT SENSITIVITY =====
   776      ! Map nodal p-norm sensitivity to element sensitivity   
   777      *VFILL, sensit_g_displ(1), RAMP, 0, 0   
   778      
   779      *DO, i, 1, numElem  
   780          ESEL, S, ELEM, , i  
   781          NSLE, S 
   782      
   783          *GET, numElemNodes, NODE, 0, COUNT  
   784      
   785          *IF, numElemNodes, GT, 0, THEN  
   786              *GET, elemNode, NODE, 0, NUM, MIN   
   787              elem_displ_sensit = 0   
   788      
   789              *DO, jj, 1, numElemNodes
   790                  *IF, nodeDisplMag(elemNode), GT, 1E-12, THEN
   791                      ! P-norm weight: (d_j/d_pnorm)^(p-1)
   792                      ratio_node = nodeDisplMag(elemNode) / displ_pnorm   
   793                      power_term_d = ratio_node**(p_norm_displ - 1)   
   794                      norm_term_d = displ_ref / displ_pnorm   
   795      
   796                      ! Heuristic: element contribution scaled by compliance  
   797                      dDispl_dx = sensit_C(i) * nodeDisplMag(elemNode) / (compliance(iter) + 1E-10)   
   798      
   799                      elem_displ_sensit = elem_displ_sensit + power_term_d*norm_term_d*dDispl_dx  
   800                  *ENDIF  
   801      
   802                  *IF, jj, LT, numElemNodes, THEN 
   803                      *GET, elemNode, NODE, elemNode, NXTH
   804                  *ENDIF  
   805              *ENDDO  
   806      
   807              sensit_g_displ(i) = elem_displ_sensit/(numElemNodes*displ_limit_RMS)
   808      
   809              *IF, xe(i), LT, 0.5, THEN   
   810                  sensit_g_displ(i) = sensit_g_displ(i) * 0.1 
   811              *ENDIF  
   812          *ENDIF  
   813      
   814          ALLSEL  
   815      *ENDDO  
   816      
   817      ALLSEL  
   818      
   819      ! ===== LCF SENSITIVITY (COMMENTED OUT - TO BE IMPLEMENTED) =====   
   820      ! P-norm analytical sensitivity for LCF constraint  
   821      !   
   822      ! *VFILL, sensit_g_lcf(1), RAMP, 0, 0   
   823      !   
   824      ! *DO, i, 1, numElem
   825      !     *IF, elemLCF(i), GT, 1, THEN  
   826      !         ! P-norm weight: (N_ref/N_i)^p / N_pnorm^(p-1)
   827      !         ratio_lcf_elem = lcf_ref / elemLCF(i) 
   828      !         power_term_lcf = ratio_lcf_elem**(p_norm_lcf - 1.0)   
   829      !         norm_term_lcf = lcf_ref / (lcf_pnorm**(p_norm_lcf - 1.0)) 
   830      !   
   831      !         ! Local LCF sensitivity: ∂N/∂x ≈ -N²/σ × ∂σ/∂x  
   832      !         ! Higher stress → lower life → higher sensitivity 
   833      !         dLCF_dx = -elemLCF(i)**2 / (elemStress(i) + 1E-6) * elemStress(i) 
   834      !   
   835      !         ! Combined sensitivity (normalized by constraint) 
   836      !         sensit_g_lcf(i) = power_term_lcf * norm_term_lcf * dLCF_dx / lcf_cycles_min   
   837      !   
   838      !         ! Penalize void elements  
   839      !         *IF, xe(i), LT, 0.5, THEN 
   840      !             sensit_g_lcf(i) = sensit_g_lcf(i) * 0.1   
   841      !         *ENDIF
   842      !     *ELSE 
   843      !         sensit_g_lcf(i) = 0   
   844      !     *ENDIF
   845      ! *ENDDO
   846      !   
   847      ! /COM, LCF sensitivities computed (analytical) 
   848      
   849      ! History averaging for stability   
   850      *IF, iter, GT, 1, THEN  
   851          *DO, i, 1, numElem  
   852              sensit_C(i) = (sensit_C(i) + sensit_old(i)) / 2 
   853          *ENDDO  
   854      *ENDIF  
   855      
   856      FINISH  
   857      
   858      ! ==================================================================
   859      ! 5.4: AUGMENTED LAGRANGIAN SENSITIVITY COMBINATION 
   860      ! ==================================================================
   861      
   862      sens_C_min = 1E30   
   863      sens_C_max = -1E30  
   864      *DO, i, 1, numElem  
   865          *IF, sensit_C(i), LT, sens_C_min, THEN  
   866              sens_C_min = sensit_C(i)
   867          *ENDIF  
   868          *IF, sensit_C(i), GT, sens_C_max, THEN  
   869              sens_C_max = sensit_C(i)
   870          *ENDIF  
   871      *ENDDO  
   872      
   873      ! Calculate effective Lagrange multipliers  
   874      *IF, g_stress, GT, 0, THEN  
   875          lambda_eff_stress = lambda_stress + mu_stress * g_stress
   876      *ELSE   
   877          lambda_eff_stress = lambda_stress   
   878      *ENDIF  
   879      
   880      *IF, g_displ, GT, 0, THEN   
   881          lambda_eff_displ = lambda_displ + mu_displ * g_displ
   882      *ELSE   
   883          lambda_eff_displ = lambda_displ 
   884      *ENDIF  
   885      
   886      ! LCF effective multiplier (COMMENTED OUT)  
   887      ! *IF, g_lcf, GT, 0, THEN   
   888      !     lambda_eff_lcf = lambda_lcf + mu_lcf * g_lcf  
   889      ! *ELSE 
   890      !     lambda_eff_lcf = lambda_lcf   
   891      ! *ENDIF
   892      
   893      ! Combine sensitivities 
   894      *DO, i, 1, numElem  
   895          sens_C_norm = (sensit_C(i) - sens_C_min) / (sens_C_max - sens_C_min + 1E-10)
   896          sensit_combined(i) = sens_C_norm
   897      
   898          weight_stress = ABS(lambda_eff_stress) / (1 + ABS(lambda_eff_stress))   
   899          sensit_combined(i) = sensit_combined(i) + weight_stress * sensit_g_stress(i)
   900      
   901          weight_displ = ABS(lambda_eff_displ) / (1 + ABS(lambda_eff_displ))  
   902          sensit_combined(i) = sensit_combined(i) + weight_displ * sensit_g_displ(i)  
   903      
   904          ! Add LCF constraint sensitivity (COMMENTED OUT)
   905          ! weight_lcf = ABS(lambda_eff_lcf) / (1 + ABS(lambda_eff_lcf))  
   906          ! sensit_combined(i) = sensit_combined(i) + weight_lcf * sensit_g_lcf(i)
   907      *ENDDO  
   908      
   909      *DO, i, 1, numElem  
   910          sensit_old(i) = sensit_combined(i)  
   911      *ENDDO  
   912      
   913      ! ==================================================================
   914      ! 5.5: APPLY SENSITIVITY FILTER 
   915      ! ==================================================================
   916      /PREP7  
   917      
   918      *DO, i, 1, numElem  
   919          sumW  = 0   
   920          sumWS = 0   
   921      
   922          *DO, k, 1, neighCount(i)
   923              j = neighList(i, k) 
   924              weight = neighWeight(i, k) * xe(j)  
   925              sumW   = sumW + weight  
   926              sumWS  = sumWS + weight*sensit_combined(j)  
   927          *ENDDO  
   928      
   929          *IF, sumW, GT, 0, THEN  
   930              sensit_filt(i) = sumWS / sumW   
   931          *ELSE   
   932              sensit_filt(i) = sensit_combined(i) 
   933          *ENDIF  
   934      *ENDDO  
   935      
   936      ! Connectivity-aware adjustment 
   937      *DO, i, 1, numElem  
   938          *IF, isDesign(i), EQ, 1, THEN   
   939              solidNeighbors = 0  
   940              *DO, k, 1, neighCount(i)
   941                  j = neighList(i, k) 
   942                  *IF, xe(j), GT, 0.5, THEN   
   943                      solidNeighbors = solidNeighbors + 1 
   944                  *ENDIF  
   945              *ENDDO  
   946      
   947              connectivityRatio = solidNeighbors / neighCount(i)  
   948      
   949              *IF, xe(i), GT, 0.5, THEN   
   950                  *IF, connectivityRatio, LT, 0.25, THEN  
   951                      sensit_filt(i) = sensit_filt(i) * 0.6   
   952                  *ELSEIF, connectivityRatio, LT, 0.4, THEN   
   953                      sensit_filt(i) = sensit_filt(i) * 0.8   
   954                  *ENDIF  
   955              *ELSE   
   956                  *IF, connectivityRatio, GT, 0.6, THEN   
   957                      sensit_filt(i) = sensit_filt(i) * 1.4   
   958                  *ELSEIF, connectivityRatio, GT, 0.45, THEN  
   959                      sensit_filt(i) = sensit_filt(i) * 1.2   
   960                  *ENDIF  
   961              *ENDIF  
   962          *ENDIF  
   963      *ENDDO  
   964      
   965      FINISH  
   966      
   967      ! ==================================================================
   968      ! 5.6: BESO UPDATE SCHEME   
   969      ! ==================================================================
   970      /PREP7  
   971      
   972      currentVol = 0  
   973      *DO, k, 1, numDesignElem
   974          i = designElemIdx(k)
   975          currentVol = currentVol + xe(i) 
   976      *ENDDO  
   977      volFrac_curr = currentVol / numDesignElem   
   978      volHistory(iter) = volFrac_curr 
   979      
   980      ! TODO: Dynamic evolution rate based on iteration   
   981      ! *IF, iter, LT, 10, THEN   
   982      !     ER = 0.50 
   983      ! *ELSEIF, iter, GE, 10, AND, iter, LT, 30, THEN
   984      !     ER = 0.30 
   985      ! *ELSEIF, iter, GE, 30, AND, iter, LT, 50, THEN
   986      !     ER = 0.20 
   987      ! *ELSE 
   988      !     ER = 0.10 
   989      ! *ENDIF
   990      
   991      *IF, volFrac_curr, GT, volfrac, THEN
   992          volFrac_tgt = volFrac_curr - ER 
   993          *IF, volFrac_tgt, LT, volfrac, THEN 
   994              volFrac_tgt = volfrac   
   995          *ENDIF  
   996      *ELSE   
   997          volFrac_tgt = volfrac   
   998      *ENDIF  
   999      
  1000      g_vol = volFrac_curr - volfrac  
  1001      g_volHistory(iter) = g_vol  
  1002      
  1003      ! Find sensitivity range
  1004      sens_min = 1E30 
  1005      sens_max = -1E30
  1006      *DO, k, 1, numDesignElem
  1007          i = designElemIdx(k)
  1008          *IF, sensit_filt(i), GT, sens_max, THEN 
  1009              sens_max = sensit_filt(i)   
  1010          *ENDIF  
  1011          *IF, sensit_filt(i), LT, sens_min, THEN 
  1012              sens_min = sensit_filt(i)   
  1013          *ENDIF  
  1014      *ENDDO  
  1015      
  1016      ! Bisection to find threshold   
  1017      *DO, bisect, 1, 50  
  1018          threshold = (sens_min + sens_max) / 2   
  1019      
  1020          testVol = 0 
  1021          *DO, k, 1, numDesignElem
  1022              i = designElemIdx(k)
  1023              *IF, sensit_filt(i), GE, threshold, THEN
  1024                  testVol = testVol + 1   
  1025              *ENDIF  
  1026          *ENDDO  
  1027          testVolFrac = testVol / numDesignElem   
  1028      
  1029          *IF, testVolFrac, GT, volFrac_tgt, THEN 
  1030              sens_min = threshold
  1031          *ELSE   
  1032              sens_max = threshold
  1033          *ENDIF  
  1034      
  1035          volError = ABS(testVolFrac - volFrac_tgt)   
  1036          *IF, volError, LT, 0.001, THEN  
  1037              *EXIT   
  1038          *ENDIF  
  1039      *ENDDO  
  1040      
  1041      ! Update densities  
  1042      *DO, k, 1, numDesignElem
  1043          i = designElemIdx(k)
  1044          *IF, sensit_filt(i), GE, threshold, THEN
  1045              xe(i) = 1.0 
  1046          *ELSE   
  1047              xe(i) = xmin
  1048          *ENDIF  
  1049      *ENDDO  
  1050      
  1051      FINISH  
  1052      
  1053      ! ==================================================================
  1054      ! 5.7: UPDATE AUGMENTED LAGRANGIAN PARAMETERS   
  1055      ! ==================================================================
  1056      
  1057      *IF, g_stress, GT, 0, THEN  
  1058          lambda_stress = lambda_stress + lambda_update * mu_stress * g_stress
  1059          *IF, lambda_stress, LT, 0, THEN 
  1060              lambda_stress = 0   
  1061          *ENDIF  
  1062      *ENDIF  
  1063      
  1064      *IF, g_displ, GT, 0, THEN   
  1065          lambda_displ = lambda_displ + lambda_update * mu_displ * g_displ
  1066          *IF, lambda_displ, LT, 0, THEN  
  1067              lambda_displ = 0
  1068          *ENDIF  
  1069      *ENDIF  
  1070      
  1071      *IF, g_stress, GT, tol_constraint, THEN 
  1072          mu_stress = mu_stress * mu_update   
  1073          *IF, mu_stress, GT, mu_max, THEN
  1074              mu_stress = mu_max  
  1075          *ENDIF  
  1076          /COM, Stress penalty increased: Mu_stress = %mu_stress% 
  1077      *ENDIF  
  1078      
  1079      *IF, g_displ, GT, tol_constraint, THEN  
  1080          mu_displ = mu_displ * mu_update 
  1081          *IF, mu_displ, GT, mu_max, THEN 
  1082              mu_displ = mu_max   
  1083          *ENDIF  
  1084          /COM, Displacement penalty increased: Mu_displ = %mu_displ% 
  1085      *ENDIF  
  1086      
  1087      ! LCF parameter updates (COMMENTED OUT) 
  1088      ! *IF, g_lcf, GT, 0, THEN   
  1089      !     lambda_lcf = lambda_lcf + lambda_update * mu_lcf * g_lcf  
  1090      !     *IF, lambda_lcf, LT, 0, THEN  
  1091      !         lambda_lcf = 0
  1092      !     *ENDIF
  1093      ! *ENDIF
  1094      !   
  1095      ! *IF, g_lcf, GT, tol_constraint, THEN  
  1096      !     mu_lcf = mu_lcf * mu_update   
  1097      !     *IF, mu_lcf, GT, mu_max, THEN 
  1098      !         mu_lcf = mu_max   
  1099      !     *ENDIF
  1100      !     /COM, LCF penalty increased: Mu_lcf = %mu_lcf%
  1101      ! *ENDIF
  1102      
  1103      lambdaStressHistory(iter) = lambda_stress   
  1104      lambdaDisplHistory(iter) = lambda_displ 
  1105      muStressHistory(iter) = mu_stress   
  1106      muDisplHistory(iter) = mu_displ 
  1107      
  1108      ! LCF history (COMMENTED OUT)   
  1109      ! lambdaLCFHistory(iter) = lambda_lcf   
  1110      ! muLCFHistory(iter) = mu_lcf   
  1111      
  1112      ! ==================================================================
  1113      ! 5.8: CHECK CONVERGENCE
  1114      ! ==================================================================
  1115      
  1116      *IF, iter, GT, conv_window, THEN
  1117          avg1 = 0
  1118          avg2 = 0
  1119          *DO, k, 0, conv_window-1
  1120              idx1 = iter - k 
  1121              idx2 = iter - k - conv_window   
  1122              *IF, idx2, GT, 0, THEN  
  1123                  avg1 = avg1 + compliance(idx1)  
  1124                  avg2 = avg2 + compliance(idx2)  
  1125              *ENDIF  
  1126          *ENDDO  
  1127          avg1 = avg1 / conv_window   
  1128          avg2 = avg2 / conv_window   
  1129      
  1130          *IF, avg2, GT, 0, THEN  
  1131              change = ABS(avg1 - avg2) / avg1
  1132          *ELSE   
  1133              change = 1  
  1134          *ENDIF  
  1135      
  1136          *IF, change, LT, convTol, THEN  
  1137              *IF, volFrac_curr, LE, volfrac + 0.001, THEN
  1138                  *IF, g_stress, LE, tol_constraint, THEN 
  1139                      *IF, g_displ, LE, tol_constraint, THEN  
  1140                          ! LCF convergence check (COMMENTED OUT) 
  1141                          ! *IF, g_lcf, LE, tol_constraint, THEN  
  1142                          converged = 1   
  1143                          /COM, ========================================  
  1144                          /COM, *** CONVERGED at iteration %iter% *** 
  1145                          /COM, Final Compliance = %compliance(iter)% 
  1146                          /COM, Final Volume Fraction = %volFrac_curr%
  1147                          /COM, Final P-norm Stress = %stress_pnorm% MPa  
  1148                          /COM, Final P-norm Displacement = %displ_pnorm% mm  
  1149                          /COM, ========================================  
  1150      
  1151                          finalIter = iter
  1152                          *EXIT   
  1153                          ! *ENDIF  ! End LCF check (COMMENTED OUT)   
  1154                      *ENDIF  
  1155                  *ENDIF  
  1156              *ENDIF  
  1157          *ENDIF  
  1158      *ENDIF  
  1159      
  1160      ! ==================================================================
  1161      ! 5.9: WRITE PROGRESS   
  1162      ! ==================================================================
  1163      /COM, Iter %iter%: C=%compliance(iter)%, Vol=%volFrac_curr%, Change=%change%
  1164      esel,s,mat,,1   
  1165      cm, SOLID_TOPOLOGY_%iter%, ELEM 
  1166      allsel  
  1167  *ENDDO  
  1168      
  1169  ! ========================================================================  
  1170  ! SECTION 6: POST-PROCESSING
  1171  ! ========================================================================  
  1172  /PREP7  
  1173      
  1174  ESEL, S, MAT, , 1   
  1175      
  1176  /PNUM, ELEM, 0  
  1177  /NUMBER, 0  
  1178  /VIEW, 1, 1, 1, 1   
  1179  /ANG, 1 
  1180  /REPLOT 
  1181  EPLOT   
  1182      
  1183  CM, SOLID_TOPOLOGY, ELEM
  1184  ALLSEL  
  1185      
  1186  /COM, ========================================  
  1187  /COM, BESO DUAL P-NORM OPTIMIZATION COMPLETE
  1188  /COM, ========================================  
  1189  /COM, P-Norm Stress Parameter: %p_norm_stress%  
  1190  /COM, P-Norm Displacement Parameter: %p_norm_displ% 
  1191  /COM, Target Volume Fraction: %volfrac% 
  1192  /COM, Final Compliance: %compliance(iter)%  
  1193  /COM, Final Volume Fraction: %volFrac_curr% 
  1194  /COM, Final Max Stress: %maxStress% MPa 
  1195  /COM, Final P-norm Stress: %stress_pnorm% MPa (Error: %stress_error*100% pct)   
  1196  *IF, g_stress, LE, tol_constraint, THEN 
  1197      /COM, Stress Constraint: SATISFIED  
  1198  *ELSE   
  1199      /COM, Stress Constraint: VIOLATED (%g_stress*100% percent)  
  1200  *ENDIF  
  1201  /COM, Final Max Displacement: %maxDispl% mm 
  1202  /COM, Final P-norm Displacement: %displ_pnorm% mm (Error: %displ_error*100% pct)
  1203  *IF, g_displ, LE, tol_constraint, THEN  
  1204      /COM, Displacement Constraint: SATISFIED
  1205  *ELSE   
  1206      /COM, Displacement Constraint: VIOLATED (%g_displ*100% percent) 
  1207  *ENDIF  
  1208  /COM, ========================================  

 RUN SETUP PROCEDURE FROM FILE= C:\Program Files\ANSYS Inc\v194\ANSYS\apdl\start.ans

 /INPUT FILE= C:\Program Files\ANSYS Inc\v194\ANSYS\apdl\start.ans  LINE=       0

 *** WARNING ***                         CP =       0.312   TIME= 23:46:12
 The /BATCH command must be the first line of input.  The /BATCH command 
 is ignored.                                                             

 CLEAR ANSYS DATABASE AND RESTART

 ANSYS Mechanical Enterprise                       

 CURRENT JOBNAME REDEFINED AS beso_2020

 *** NOTE ***                            CP =       0.344   TIME= 23:46:12
 The defined jobname (beso_2020) contains a numeric value (0->9) for the 
 last character.  Therefore, when creating local solution files          
 Distributed ANSYS will append an underscore to the jobname prior to     
 appending the MPI rank.                                                 
     Opening new LOG, ERROR, LOCK and PAGE FILES
  BESO Topology Optimization with Augmented Lagrange for Volume, Stress and Disp
  Modified by Suleyman Yasayanlar 2026
  Be aware of units used in the model (N, mm)
  Be aware of material numbers for design and passive domains
  Material 1 : Design Material
  Material 2 : Void Material
  If submodel please add cut BCs in Section 3
  Clear all previous data

 SYSTEM= 
  del *.esav


 SYSTEM= 
  del *.full


 SYSTEM= 
  del *.mntr


 SYSTEM= 
  del *.page

C:\Users\Suleyman\Documents\01_DER_BESO_OPT\BESO-in-ANSYS\BESO_APPLICATION0.page
The process cannot access the file because it is being used by another process.
C:\Users\Suleyman\Documents\01_DER_BESO_OPT\BESO-in-ANSYS\BESO_APPLICATION1.page
The process cannot access the file because it is being used by another process.
C:\Users\Suleyman\Documents\01_DER_BESO_OPT\BESO-in-ANSYS\BESO_APPLICATION10.page
The process cannot access the file because it is being used by another process.
C:\Users\Suleyman\Documents\01_DER_BESO_OPT\BESO-in-ANSYS\BESO_APPLICATION11.page
The process cannot access the file because it is being used by another process.
C:\Users\Suleyman\Documents\01_DER_BESO_OPT\BESO-in-ANSYS\BESO_APPLICATION2.page
The process cannot access the file because it is being used by another process.
C:\Users\Suleyman\Documents\01_DER_BESO_OPT\BESO-in-ANSYS\BESO_APPLICATION3.page
The process cannot access the file because it is being used by another process.
C:\Users\Suleyman\Documents\01_DER_BESO_OPT\BESO-in-ANSYS\BESO_APPLICATION4.page
The process cannot access the file because it is being used by another process.
C:\Users\Suleyman\Documents\01_DER_BESO_OPT\BESO-in-ANSYS\BESO_APPLICATION5.page
The process cannot access the file because it is being used by another process.
C:\Users\Suleyman\Documents\01_DER_BESO_OPT\BESO-in-ANSYS\BESO_APPLICATION6.page
The process cannot access the file because it is being used by another process.
C:\Users\Suleyman\Documents\01_DER_BESO_OPT\BESO-in-ANSYS\BESO_APPLICATION7.page
The process cannot access the file because it is being used by another process.
C:\Users\Suleyman\Documents\01_DER_BESO_OPT\BESO-in-ANSYS\BESO_APPLICATION8.page
The process cannot access the file because it is being used by another process.
C:\Users\Suleyman\Documents\01_DER_BESO_OPT\BESO-in-ANSYS\BESO_APPLICATION9.page
The process cannot access the file because it is being used by another process.

 SYSTEM= 
  del *.rst


 SYSTEM= 
  del *.stat


 SYSTEM= 
  del *.db

Could Not Find C:\Users\Suleyman\Documents\01_DER_BESO_OPT\BESO-in-ANSYS\*.db

 SYSTEM= 
  del *.lock

C:\Users\Suleyman\Documents\01_DER_BESO_OPT\BESO-in-ANSYS\BESO_APPLICATION.lock
The process cannot access the file because it is being used by another process.

 PARAMETER _PI =     3.141592654    

 PARAMETER EPS_MACHINE =    0.1000000000E-15

 PARAMETER E_DESIGN =     200000.0000    

 PARAMETER NU_DESIGN =    0.3000000000    

 PARAMETER VOID_PARAM =    0.1000000000E-08

 PARAMETER E_VOID =    0.2000000000E-03

 PARAMETER NU_VOID =    0.3000000000    
  Element size and filter radius must be double checked with FEA model

 PARAMETER ESIZE_ =     20.00000000    

 PARAMETER RMIN =     30.00000000    

 PARAMETER VOLFRAC =    0.2500000000    

 PARAMETER ER =    0.5000000000E-01

 PARAMETER MAXITER =     100.0000000    

 PARAMETER CONVTOL =    0.2000000000E-02

 PARAMETER CONV_WINDOW =     5.000000000    

 PARAMETER XMIN =    0.1000000000E-02

 PARAMETER STRESS_LIMIT =     420.0000000    

 PARAMETER DISPL_LIMIT_RMS =     50.00000000    

 PARAMETER TOL_CONSTRAINT =    0.5000000000E-01

 PARAMETER P_NORM_STRESS =     8.000000000    

 PARAMETER P_NORM_DISPL =     6.000000000    

 PARAMETER SIGMA_REF =     420.0000000    

 PARAMETER DISPL_REF =     50.00000000    

 PARAMETER LAMBDA_STRESS =     0.000000000    

 PARAMETER LAMBDA_DISPL =     0.000000000    

 PARAMETER MU_STRESS =    0.1000000000E-07

 PARAMETER MU_DISPL =    0.1000000000E-07

 PARAMETER MU_MAX =    0.1000000000E-03

 PARAMETER MU_UPDATE =     10.00000000    

 PARAMETER LAMBDA_UPDATE =    0.5000000000    
  ========================================================================

 *** ANSYS - ENGINEERING ANALYSIS SYSTEM  RELEASE 2019 R2          19.4     ***
 DISTRIBUTED ANSYS Mechanical Enterprise                       

 20120530  VERSION=WINDOWS x64   23:46:13  JAN 11, 2026 CP=      0.359

                                                                               



          ***** ANSYS ANALYSIS DEFINITION (PREP7) *****

 TEMPERATURE TABLE ERASED.

 *** PROPERTY TEMPERATURE TABLE    NUM. TEMPS=  1 ***
 SLOC=   1     0.000000    

 PROPERTY TABLE EX    MAT=      1  NUM. POINTS=  1
 SLOC=   1     200000.0    

 PROPERTY TABLE PRXY  MAT=      1  NUM. POINTS=  1
 SLOC=   1    0.3000000    

 TEMPERATURE TABLE ERASED.

 *** PROPERTY TEMPERATURE TABLE    NUM. TEMPS=  1 ***
 SLOC=   1     0.000000    

 PROPERTY TABLE EX    MAT=      2  NUM. POINTS=  1
 SLOC=   1    0.2000000E-03

 PROPERTY TABLE PRXY  MAT=      2  NUM. POINTS=  1
 SLOC=   1    0.3000000    

 SELECT ALL ENTITIES OF TYPE= ALL  AND BELOW


 ***** ROUTINE COMPLETED *****  CP =         0.359



 /INPUT FILE= .\simple_block.cdb  LINE=       0

 *** ANSYS - ENGINEERING ANALYSIS SYSTEM  RELEASE 2019 R2          19.4     ***
 DISTRIBUTED ANSYS Mechanical Enterprise                       

 20120530  VERSION=WINDOWS x64   23:46:13  JAN 11, 2026 CP=      0.359

                                                                               



          ***** ANSYS ANALYSIS DEFINITION (PREP7) *****

 *IF  _CDRDOFF                          ( =  0.788861E-30 )  EQ  
      1                                 ( =   1.00000     )  THEN    

 *ELSE

 OFFSET NODE NUMBERS BY    17576

 OFFSET ELEMENT NUMBERS BY    16250

 OFFSET ELEMENT TYPE NUMBERS BY        1

 *ENDIF

 NBLOCK format=(3i8,6e16.9)                                                

 ELEMENT TYPE       1 IS SOLID185     3-D 8-NODE STRUCTURAL SOLID 
  KEYOPT( 1- 6)=        0      0      0        0      0      0
  KEYOPT( 7-12)=        0      0      0        0      0      0
  KEYOPT(13-18)=        0      0      0        0      0      0

 CURRENT NODAL DOF SET IS  UX    UY    UZ  
  THREE-DIMENSIONAL MODEL

 ELEMENT TYPE       1 IS SOLID185     3-D 8-NODE STRUCTURAL SOLID 
  KEYOPT( 1- 6)=        0      2      0        0      0      0
  KEYOPT( 7-12)=        0      0      0        0      0      0
  KEYOPT(13-18)=        0      0      0        0      0      0

 CURRENT NODAL DOF SET IS  UX    UY    UZ  
  THREE-DIMENSIONAL MODEL

 ELEMENT TYPE SET TO         1

 MATERIAL NUMBER SET TO         1

 REAL CONSTANT NUMBER=        1

 EBLOCK read of  19 nodes per line
 Format= (19i8)                                                                

 EBLOCK input of    15625 elements completed

 DEFINITION OF COMPONENT = BLOCK_001  ENTITY=ELEM

 NONE SELECT  FOR ITEM=ELEM COMPONENT=    
  IN RANGE         1 TO      16250 STEP          1

          0  ELEMENTS (OF      15625  DEFINED) SELECTED BY ESEL  COMMAND.

 ALL SELECT   FOR ITEM=ELEM COMPONENT=    
  IN RANGE         1 TO      16250 STEP          1

      15625  ELEMENTS (OF      15625  DEFINED) SELECTED BY  ESEL  COMMAND.
 CMBLOCK read of NODE component FIXED_BC  completed
 CMBLOCK read of NODE component FORCE_BC  completed
 CMBLOCK read of ELEM component PASSIVE_REGION  completed
 CMBLOCK read of ELEM component DESIGN_DOMAIN  completed


 ***** ROUTINE COMPLETED *****  CP =         0.734



 *** ANSYS - ENGINEERING ANALYSIS SYSTEM  RELEASE 2019 R2          19.4     ***
 DISTRIBUTED ANSYS Mechanical Enterprise                       

 20120530  VERSION=WINDOWS x64   23:46:13  JAN 11, 2026 CP=      0.734

                                                                               



          ***** ANSYS ANALYSIS DEFINITION (PREP7) *****

 SELECT ALL ENTITIES OF TYPE= ALL  AND BELOW
  For initial study all numberings are reset

 COMPRESS NODE NUMBERS
      MAXIMUM NODE NUMBER COMPRESSED FROM     17576 TO     17576

 COMPRESS ELEMENT NUMBERS
      MAXIMUM ELEMENT NUMBER COMPRESSED FROM     16250 TO     15625

 COMPRESS KEYPOINT NUMBERS

 COMPRESS LINE NUMBERS

 COMPRESS AREA NUMBERS

 COMPRESS VOLUME NUMBERS

 COMPRESS MATERIAL NUMBERS
      MAXIMUM MATERIAL NUMBER COMPRESSED FROM       2 TO       2

 COMPRESS ELEMENT TYPE NUMBERS
      MAXIMUM ELEMENT TYPE NUMBER COMPRESSED FROM         1 TO         1

 COMPRESS REAL CONSTANT NUMBERS

 COMPRESS SECTION NUMBERS

 COMPRESS COUPLED DOF SET NUMBERS

 COMPRESS CONSTRAINT EQUATION NUMBERS

 *** NOTE *** Display device has not yet been specified with the /SHOW command.  Display commands ignored. 

 TITLE= 
  Initial Mesh -- BESO Topology Optimization with Augmented Lagrange (N.mm)    



 ***** ROUTINE COMPLETED *****  CP =         0.922



 SELECT ALL ENTITIES OF TYPE= ALL  AND BELOW

 *** ANSYS - ENGINEERING ANALYSIS SYSTEM  RELEASE 2019 R2          19.4     ***
 DISTRIBUTED ANSYS Mechanical Enterprise                       

 20120530  VERSION=WINDOWS x64   23:46:13  JAN 11, 2026 CP=      0.922

  Initial Mesh -- BESO Topology Optimization with Augmented Lagrange (N.mm)    



          ***** ANSYS ANALYSIS DEFINITION (PREP7) *****
  If you have other domains please assign materials accordingly

 ALL SELECT   FOR ITEM=ELEM COMPONENT=    
  IN RANGE         1 TO      15625 STEP          1

      15625  ELEMENTS (OF      15625  DEFINED) SELECTED BY  ESEL  COMMAND.

 MODIFY ALL SELECTED ELEMENTS STARTING AT NODE LOCATION  0
 SELECTED ELEMENTS SET TO TYPE=     1  MAT=     1  REAL=      1  ESYS=  0 SEC=      1

         16  NODES (OF      17576  DEFINED) SELECTED BY  NSEL  COMMAND.

 SPECIFIED CONSTRAINT UX   FOR SELECTED NODES            1 TO       17576 BY           1
 REAL=  0.00000000       IMAG=  0.00000000    
 ADDITIONAL DOFS=  UY    UZ  

         16  NODES (OF      17576  DEFINED) SELECTED BY  NSEL  COMMAND.

 SPECIFIED NODAL LOAD FZ   FOR SELECTED NODES         1 TO    17576 BY        1
  REAL= -625000.000       IMAG=  0.00000000    

 SELECT ALL ENTITIES OF TYPE= ALL  AND BELOW


 ***** ROUTINE COMPLETED *****  CP =         1.656



 *** ANSYS - ENGINEERING ANALYSIS SYSTEM  RELEASE 2019 R2          19.4     ***
 DISTRIBUTED ANSYS Mechanical Enterprise                       

 20120530  VERSION=WINDOWS x64   23:46:13  JAN 11, 2026 CP=      1.656

  Initial Mesh -- BESO Topology Optimization with Augmented Lagrange (N.mm)    



          ***** ANSYS ANALYSIS DEFINITION (PREP7) *****

 SELECT ALL ENTITIES OF TYPE= ALL  AND BELOW

 *GET  NUMELEM   FROM  ELEM  ITEM=COUN           VALUE=  15625.0000    

 *GET  NUMNODE   FROM  NODE  ITEM=COUN       VALUE=  17576.0000     

      15370  ELEMENTS (OF      15625  DEFINED) SELECTED BY  ESEL  COMMAND.

 *GET  NUMDESIGNELEM  FROM  ELEM  ITEM=COUN           VALUE=  15370.0000    

 SELECT ALL ENTITIES OF TYPE= ALL  AND BELOW

        255  ELEMENTS (OF      15625  DEFINED) SELECTED BY  ESEL  COMMAND.

 *GET  NUMPASSIVEELEM  FROM  ELEM  ITEM=COUN           VALUE=  255.000000    

 SELECT ALL ENTITIES OF TYPE= ALL  AND BELOW
  ========================================
  BESO WITH DUAL P-NORM AGGREGATION
  Total Elements: 15625
  Total Nodes: 17576
  Design Domain Elements: 15370
  Passive Region Elements: 255
  Units are N and mm
  For later cases we can use in and psi units
  Volume Fraction Target: 0.25
  Evolution Rate: 5.E-02 per iteration
  Maximum Iterations: 100
  Convergence Tolerance: 2.E-03
  P-Norm Stress: 8
  P-Norm Displacement: 6
  Stress Limit: 420 MPa
  Displacement Limit: 50 mm
  ========================================

 SET PARAMETER DIMENSIONS ON  XE TYPE=ARRA  DIMENSIONS= 15625     1     1

 SET PARAMETER DIMENSIONS ON  SENSIT_C TYPE=ARRA  DIMENSIONS= 15625     1     1

 SET PARAMETER DIMENSIONS ON  SENSIT_G_STRESS
  TYPE=ARRA  DIMENSIONS=    15625        1        1

 SET PARAMETER DIMENSIONS ON  SENSIT_G_DISPL
  TYPE=ARRA  DIMENSIONS=    15625        1        1

 SET PARAMETER DIMENSIONS ON  SENSIT_COMBINED
  TYPE=ARRA  DIMENSIONS=    15625        1        1

 SET PARAMETER DIMENSIONS ON  SENSIT_FILT
  TYPE=ARRA  DIMENSIONS=    15625        1        1

 SET PARAMETER DIMENSIONS ON  SENSIT_OLD
  TYPE=ARRA  DIMENSIONS=    15625        1        1

 SET PARAMETER DIMENSIONS ON  ELEMCENX TYPE=ARRA  DIMENSIONS= 15625     1     1

 SET PARAMETER DIMENSIONS ON  ELEMCENY TYPE=ARRA  DIMENSIONS= 15625     1     1

 SET PARAMETER DIMENSIONS ON  ELEMCENZ TYPE=ARRA  DIMENSIONS= 15625     1     1

 SET PARAMETER DIMENSIONS ON  ELEMVOL TYPE=ARRA  DIMENSIONS= 15625     1     1

 SET PARAMETER DIMENSIONS ON  COMPLIANCE
  TYPE=ARRA  DIMENSIONS=      100        1        1

 SET PARAMETER DIMENSIONS ON  VOLHISTORY
  TYPE=ARRA  DIMENSIONS=      100        1        1

 SET PARAMETER DIMENSIONS ON  STRESSPNORMHISTORY
  TYPE=ARRA  DIMENSIONS=      100        1        1

 SET PARAMETER DIMENSIONS ON  MAXSTRESSHISTORY
  TYPE=ARRA  DIMENSIONS=      100        1        1

 SET PARAMETER DIMENSIONS ON  DISPLPNORMHISTORY
  TYPE=ARRA  DIMENSIONS=      100        1        1

 SET PARAMETER DIMENSIONS ON  MAXDISPLHISTORY
  TYPE=ARRA  DIMENSIONS=      100        1        1

 SET PARAMETER DIMENSIONS ON  LAMBDASTRESSHISTORY
  TYPE=ARRA  DIMENSIONS=      100        1        1

 SET PARAMETER DIMENSIONS ON  LAMBDADISPLHISTORY
  TYPE=ARRA  DIMENSIONS=      100        1        1

 SET PARAMETER DIMENSIONS ON  MUSTRESSHISTORY
  TYPE=ARRA  DIMENSIONS=      100        1        1

 SET PARAMETER DIMENSIONS ON  MUDISPLHISTORY
  TYPE=ARRA  DIMENSIONS=      100        1        1

 SET PARAMETER DIMENSIONS ON  G_STRESSHISTORY
  TYPE=ARRA  DIMENSIONS=      100        1        1

 SET PARAMETER DIMENSIONS ON  G_DISPLHISTORY
  TYPE=ARRA  DIMENSIONS=      100        1        1

 SET PARAMETER DIMENSIONS ON  G_VOLHISTORY
  TYPE=ARRA  DIMENSIONS=      100        1        1

 SET PARAMETER DIMENSIONS ON  PNORMERRORSTRESS
  TYPE=ARRA  DIMENSIONS=      100        1        1

 SET PARAMETER DIMENSIONS ON  PNORMERRORDISPL
  TYPE=ARRA  DIMENSIONS=      100        1        1

 SET PARAMETER DIMENSIONS ON  ELEMSTRESS
  TYPE=ARRA  DIMENSIONS=    15625        1        1

 SET PARAMETER DIMENSIONS ON  NODEDISPX
  TYPE=ARRA  DIMENSIONS=    17576        1        1

 SET PARAMETER DIMENSIONS ON  NODEDISPY
  TYPE=ARRA  DIMENSIONS=    17576        1        1

 SET PARAMETER DIMENSIONS ON  NODEDISPZ
  TYPE=ARRA  DIMENSIONS=    17576        1        1

 SET PARAMETER DIMENSIONS ON  NODEDISPLMAG
  TYPE=ARRA  DIMENSIONS=    17576        1        1

 SET PARAMETER DIMENSIONS ON  ISBCNODE TYPE=ARRA  DIMENSIONS= 17576     1     1

 PARAMETER NUMNEIGHINCREASE =     100.0000000    

 PARAMETER MAXNEIGHBORS =     156.0000000    

 PARAMETER MAXNEIGHBORS =     256.0000000    

 SET PARAMETER DIMENSIONS ON  NEIGHCOUNT
  TYPE=ARRA  DIMENSIONS=    15625        1        1

 SET PARAMETER DIMENSIONS ON  NEIGHLIST
  TYPE=ARRA  DIMENSIONS=    15625      256        1

 SET PARAMETER DIMENSIONS ON  NEIGHWEIGHT
  TYPE=ARRA  DIMENSIONS=    15625      256        1

 SET PARAMETER DIMENSIONS ON  ISDESIGN TYPE=ARRA  DIMENSIONS= 15625     1     1

 VECTOR FILL OPERATION  *VFILL  
  xe(1)            = RAMP
 VECTOR LENGTH=   15625
 INITIAL VALUE=  1.0000      STEP INCREMENT=  0.0000    

 SELECT ALL ENTITIES OF TYPE= ALL  AND BELOW

 VECTOR GET OPERATION  elemCenX(1)  VECTOR LENGTH=   15625
 NAME= ELEM         1  CENT  X   

 VECTOR GET OPERATION  elemCenY(1)  VECTOR LENGTH=   15625
 NAME= ELEM         1  CENT  Y   

 VECTOR GET OPERATION  elemCenZ(1)  VECTOR LENGTH=   15625
 NAME= ELEM         1  CENT  Z   

 VECTOR GET OPERATION  elemVol(1)  VECTOR LENGTH=   15625
 NAME= ELEM         1  GEOM      

 SELECT ALL ENTITIES OF TYPE= ALL  AND BELOW
  Pre-computing neighbor list for 3D filter...

 *DO LOOP ON PARAMETER= I FROM  1.0000     TO  15625.     BY  1.0000    

 PARAMETER NEIGHCOUNT(I) =     0.000000000    

 PARAMETER CX_I =     340.0000000    

 PARAMETER CY_I =     340.0000000    

 PARAMETER CZ_I =     490.0000000    

 SELECT ALL ENTITIES OF TYPE= ALL  AND BELOW

 SELECT       FOR ITEM=LOC  COMPONENT=X     BETWEEN  310.00     AND   370.00    
   KABS=  0.  TOLERANCE= 0.600000E-06

       1352  NODES (OF      17576  DEFINED) SELECTED BY  NSEL  COMMAND.

 RESELECT     FOR ITEM=LOC  COMPONENT=Y     BETWEEN  310.00     AND   370.00    
   KABS=  0.  TOLERANCE= 0.600000E-06

        104  NODES (OF      17576  DEFINED) SELECTED BY  NSEL  COMMAND.

 RESELECT     FOR ITEM=LOC  COMPONENT=Z     BETWEEN  460.00     AND   520.00    
   KABS=  0.  TOLERANCE= 0.600000E-06

         12  NODES (OF      17576  DEFINED) SELECTED BY  NSEL  COMMAND.

 SELECT      ONLY ELEMENTS COMPLETELY CONTAINED WITHIN NODE SET.

          2 ELEMENTS (OF      15625  DEFINED) SELECTED FROM
       12 SELECTED NODES BY  ESLN COMMAND.

 *GET  NUMNEIGH  FROM  ELEM  ITEM=COUN           VALUE=  2.00000000    

 *IF  numNeigh                          ( =   2.00000     )  GT  
      0                                 ( =   0.00000     )  THEN    

 *GET  J         FROM  ELEM  ITEM=NUM  MIN       VALUE=  1.00000000    

 *DO LOOP ON PARAMETER= K FROM  1.0000     TO  2.0000     BY  1.0000    

 PARAMETER DX =     0.000000000    

 PARAMETER DY =     0.000000000    

 PARAMETER DZ =     0.000000000    

 PARAMETER DIST =     0.000000000    

 *IF  dist                              ( =   0.00000     )  LT  
      Rmin                              ( =   30.0000     )  THEN    

 PARAMETER NEIGHCOUNT(I) =     1.000000000    

 PARAMETER NC =     1.000000000    

 PARAMETER NEIGHLIST(I,NC) =     1.000000000    

 PARAMETER NEIGHWEIGHT(I,NC) =     30.00000000    

 *IF  nc                                ( =   1.00000     )  GE  
      maxNeighbors                      ( =   256.000     )  THEN    

 *ENDIF

 *ENDIF

 *IF  k                                 ( =   1.00000     )  LT  
      numNeigh                          ( =   2.00000     )  THEN    

 *GET  J         FROM  ELEM         1  ITEM=NXTH           VALUE=  2.00000000    

 *ENDIF

 *ENDDO  INDEX= K                               

 *ENDIF

 *IF  MOD(i,500)                        ( =   1.00000     )  EQ  
      0                                 ( =   0.00000     )  THEN    

 *ENDIF

 *ENDDO  INDEX= I                               
  Processed element 500 of 15625
  Processed element 1000 of 15625
  Processed element 1500 of 15625
  Processed element 2000 of 15625
  Processed element 2500 of 15625
  Processed element 3000 of 15625
  Processed element 3500 of 15625
  Processed element 4000 of 15625
  Processed element 4500 of 15625
  Processed element 5000 of 15625
  Processed element 5500 of 15625
  Processed element 6000 of 15625
  Processed element 6500 of 15625
  Processed element 7000 of 15625
  Processed element 7500 of 15625
  Processed element 8000 of 15625
  Processed element 8500 of 15625
  Processed element 9000 of 15625
  Processed element 9500 of 15625
  Processed element 10000 of 15625
  Processed element 10500 of 15625
  Processed element 11000 of 15625
  Processed element 11500 of 15625
  Processed element 12000 of 15625
  Processed element 12500 of 15625
  Processed element 13000 of 15625
  Processed element 13500 of 15625
  Processed element 14000 of 15625
  Processed element 14500 of 15625
  Processed element 15000 of 15625
  Processed element 15500 of 15625

 SELECT ALL ENTITIES OF TYPE= ALL  AND BELOW
  Neighbor list computed.

 PARAMETER NUMDESIGNELEM =     0.000000000    

 PARAMETER NUMPASSIVEELEM =     0.000000000    

 VECTOR FILL OPERATION  *VFILL  
  isDesign(1)      = RAMP
 VECTOR LENGTH=   15625
[...]



  
  
     D I S T R I B U T E D   D O M A I N   D E C O M P O S E R
  
  ...Number of elements: 15625
  ...Number of nodes:    17576
  ...Decompose to 12 CPU domains
  ...Element load balance ratio =     1.001


 SOLUTION MONITORING INFO IS WRITTEN TO FILE= beso_2020.mntr                                                                                                                                                                                                                                                      


 Range of element maximum matrix coefficients in global coordinates
 Maximum = 2413512.41 at element 13805.                                  
 Minimum = 2.413512414E-03 at element 12668.                             

 *** WARNING ***                         CP =    2989.172   TIME= 23:52:31
 Coefficient ratio exceeds 1.0e8 - Check results.                        

   *** ELEMENT MATRIX FORMULATION TIMES
     TYPE    NUMBER   ENAME      TOTAL CP  AVE CP

        1     15625  SOLID185      1.375   0.000088
 Time at end of element matrix formulation CP = 2989.17188.              

 DISTRIBUTED SPARSE MATRIX DIRECT SOLVER.
  Number of equations =       52680,    Maximum wavefront =     63

  Local memory allocated for solver              =     56.273 MB
  Local memory required for in-core solution     =     53.773 MB
  Local memory required for out-of-core solution =     23.006 MB

  Total memory allocated for solver              =    522.235 MB
  Total memory required for in-core solution     =    499.246 MB
  Total memory required for out-of-core solution =    211.881 MB

 *** NOTE ***                            CP =    2990.156   TIME= 23:52:31
 The Distributed Sparse Matrix Solver is currently running in the        
 in-core memory mode.  This memory mode uses the most amount of memory   
 in order to avoid using the hard drive as much as possible, which most  
 often results in the fastest solution time.  This mode is recommended   
 if enough physical memory is present to accommodate all of the solver   
 data.                                                                   
 Distributed sparse solver maximum pivot= 19308099.3 at node 16177 UZ.   
 Distributed sparse solver minimum pivot= 1.155155483E-03 at node 51 UY. 
 Distributed sparse solver minimum pivot in absolute value=              
 1.155155483E-03 at node 51 UY.                                          

   *** ELEMENT RESULT CALCULATION TIMES
     TYPE    NUMBER   ENAME      TOTAL CP  AVE CP

        1     15625  SOLID185      1.031   0.000066

   *** NODAL LOAD CALCULATION TIMES
     TYPE    NUMBER   ENAME      TOTAL CP  AVE CP

        1     15625  SOLID185      0.094   0.000006
 *** LOAD STEP     1   SUBSTEP     1  COMPLETED.    CUM ITER =      1
 *** TIME =   1.00000         TIME INC =   1.00000      NEW TRIANG MATRIX


 *** ANSYS BINARY FILE STATISTICS
  BUFFER SIZE USED= 16384
        1.938 MB WRITTEN ON ASSEMBLED MATRIX FILE: beso_2020_0.full
        1.750 MB WRITTEN ON RESULTS FILE: beso_2020_0.rst

 FINISH SOLUTION PROCESSING


 ***** ROUTINE COMPLETED *****  CP =      2990.844



 *** ANSYS - ENGINEERING ANALYSIS SYSTEM  RELEASE 2019 R2          19.4     ***
 DISTRIBUTED ANSYS Mechanical Enterprise                       

 20120530  VERSION=WINDOWS x64   23:52:32  JAN 11, 2026 CP=   2990.859

  Initial Mesh -- BESO Topology Optimization with Augmented Lagrange (N.mm)    



          ***** ANSYS RESULTS INTERPRETATION (POST1) *****

 SUM ALL THE ACTIVE ENTRIES IN THE ELEMENT TABLE 

 TABLE LABEL     TOTAL
 SENE_TAB  0.430172E+07
 SEQV_TAB   435571.    

 *** WARNING ***                         CP =    2991.797   TIME= 23:52:32
 Some entities requested in the *VGET were undefined.                    

 *** WARNING ***                         CP =    2992.141   TIME= 23:52:32
 Some entities requested in the *VGET were undefined.                    
  ========================================
  Iter 26 Analysis:
  Compliance = 8603441.16
  Max Stress = 273.999683 MPa, P-norm = 420 MPa (Error: 0.53284849 pct)
  Max Displ = 1.28902569 mm, P-norm = 50 mm (Error: 37.7889864 pct)
  g_stress = 0 pct, g_displ = 0 pct
  ========================================

 EXIT THE ANSYS POST1 DATABASE PROCESSOR


 ***** ROUTINE COMPLETED *****  CP =      3090.188



 *** ANSYS - ENGINEERING ANALYSIS SYSTEM  RELEASE 2019 R2          19.4     ***
 DISTRIBUTED ANSYS Mechanical Enterprise                       

 20120530  VERSION=WINDOWS x64   23:52:42  JAN 11, 2026 CP=   3091.750

  Initial Mesh -- BESO Topology Optimization with Augmented Lagrange (N.mm)    



          ***** ANSYS ANALYSIS DEFINITION (PREP7) *****


 ***** ROUTINE COMPLETED *****  CP =      3095.359



 *** ANSYS - ENGINEERING ANALYSIS SYSTEM  RELEASE 2019 R2          19.4     ***
 DISTRIBUTED ANSYS Mechanical Enterprise                       

 20120530  VERSION=WINDOWS x64   23:52:43  JAN 11, 2026 CP=   3095.359

  Initial Mesh -- BESO Topology Optimization with Augmented Lagrange (N.mm)    



          ***** ANSYS ANALYSIS DEFINITION (PREP7) *****


 ***** ROUTINE COMPLETED *****  CP =      3098.453


  Iter 26: C=8603441.16, Vol=0.249807547, Change=5.706356979E-03

 *** ANSYS - ENGINEERING ANALYSIS SYSTEM  RELEASE 2019 R2          19.4     ***
 DISTRIBUTED ANSYS Mechanical Enterprise                       

 20120530  VERSION=WINDOWS x64   23:52:44  JAN 11, 2026 CP=   3098.453

  Initial Mesh -- BESO Topology Optimization with Augmented Lagrange (N.mm)    



          ***** ANSYS ANALYSIS DEFINITION (PREP7) *****


 ***** ROUTINE COMPLETED *****  CP =      3100.984



 *****  ANSYS SOLUTION ROUTINE  *****

 *****  ANSYS SOLVE    COMMAND  *****

 *** SELECTION OF ELEMENT TECHNOLOGIES FOR APPLICABLE ELEMENTS ***
                ---GIVE SUGGESTIONS ONLY---

 ELEMENT TYPE    1 IS SOLID185. IT IS ASSOCIATED WITH LINEAR MATERIALS ONLY
 AND POISSON'S RATIO IS NOT GREATER THAN 0.49. KEYOPT(2)=3 IS SUGGESTED.



 *** ANSYS - ENGINEERING ANALYSIS SYSTEM  RELEASE 2019 R2          19.4     ***
 DISTRIBUTED ANSYS Mechanical Enterprise                       

 20120530  VERSION=WINDOWS x64   23:52:45  JAN 11, 2026 CP=   3101.125

  Initial Mesh -- BESO Topology Optimization with Augmented Lagrange (N.mm)    



  
  
     D I S T R I B U T E D   D O M A I N   D E C O M P O S E R
  
  ...Number of elements: 15625
  ...Number of nodes:    17576
  ...Decompose to 12 CPU domains
  ...Element load balance ratio =     1.001


 SOLUTION MONITORING INFO IS WRITTEN TO FILE= beso_2020.mntr                                                                                                                                                                                                                                                      


 Range of element maximum matrix coefficients in global coordinates
 Maximum = 2413512.41 at element 13805.                                  
 Minimum = 2.413512414E-03 at element 12668.                             

 *** WARNING ***                         CP =    3102.969   TIME= 23:52:45
 Coefficient ratio exceeds 1.0e8 - Check results.                        

   *** ELEMENT MATRIX FORMULATION TIMES
     TYPE    NUMBER   ENAME      TOTAL CP  AVE CP

        1     15625  SOLID185      1.391   0.000089
 Time at end of element matrix formulation CP = 3102.96875.              

 DISTRIBUTED SPARSE MATRIX DIRECT SOLVER.
  Number of equations =       52680,    Maximum wavefront =     63

  Local memory allocated for solver              =     56.273 MB
  Local memory required for in-core solution     =     53.773 MB
  Local memory required for out-of-core solution =     23.006 MB

  Total memory allocated for solver              =    522.235 MB
  Total memory required for in-core solution     =    499.246 MB
  Total memory required for out-of-core solution =    211.881 MB

 *** NOTE ***                            CP =    3103.766   TIME= 23:52:45
 The Distributed Sparse Matrix Solver is currently running in the        
 in-core memory mode.  This memory mode uses the most amount of memory   
 in order to avoid using the hard drive as much as possible, which most  
 often results in the fastest solution time.  This mode is recommended   
 if enough physical memory is present to accommodate all of the solver   
 data.                                                                   
 Distributed sparse solver maximum pivot= 19308099.3 at node 16177 UZ.   
 Distributed sparse solver minimum pivot= 1.155155483E-03 at node 51 UY. 
 Distributed sparse solver minimum pivot in absolute value=              
 1.155155483E-03 at node 51 UY.                                          

   *** ELEMENT RESULT CALCULATION TIMES
     TYPE    NUMBER   ENAME      TOTAL CP  AVE CP

        1     15625  SOLID185      1.062   0.000068

   *** NODAL LOAD CALCULATION TIMES
     TYPE    NUMBER   ENAME      TOTAL CP  AVE CP

        1     15625  SOLID185      0.078   0.000005
 *** LOAD STEP     1   SUBSTEP     1  COMPLETED.    CUM ITER =      1
 *** TIME =   1.00000         TIME INC =   1.00000      NEW TRIANG MATRIX


 *** ANSYS BINARY FILE STATISTICS
  BUFFER SIZE USED= 16384
        1.938 MB WRITTEN ON ASSEMBLED MATRIX FILE: beso_2020_0.full
        1.750 MB WRITTEN ON RESULTS FILE: beso_2020_0.rst

 FINISH SOLUTION PROCESSING


 ***** ROUTINE COMPLETED *****  CP =      3104.484



 *** ANSYS - ENGINEERING ANALYSIS SYSTEM  RELEASE 2019 R2          19.4     ***
 DISTRIBUTED ANSYS Mechanical Enterprise                       

 20120530  VERSION=WINDOWS x64   23:52:46  JAN 11, 2026 CP=   3104.484

  Initial Mesh -- BESO Topology Optimization with Augmented Lagrange (N.mm)    



          ***** ANSYS RESULTS INTERPRETATION (POST1) *****

 SUM ALL THE ACTIVE ENTRIES IN THE ELEMENT TABLE 

 TABLE LABEL     TOTAL
 SENE_TAB  0.430172E+07
 SEQV_TAB   435571.    

 *** WARNING ***                         CP =    3105.422   TIME= 23:52:46
 Some entities requested in the *VGET were undefined.                    

 *** WARNING ***                         CP =    3105.797   TIME= 23:52:46
 Some entities requested in the *VGET were undefined.                    
  ========================================
  Iter 27 Analysis:
  Compliance = 8603441.16
  Max Stress = 273.999683 MPa, P-norm = 420 MPa (Error: 0.53284849 pct)
  Max Displ = 1.28902569 mm, P-norm = 50 mm (Error: 37.7889864 pct)
  g_stress = 0 pct, g_displ = 0 pct
  ========================================

 EXIT THE ANSYS POST1 DATABASE PROCESSOR


 ***** ROUTINE COMPLETED *****  CP =      3200.562



 *** ANSYS - ENGINEERING ANALYSIS SYSTEM  RELEASE 2019 R2          19.4     ***
 DISTRIBUTED ANSYS Mechanical Enterprise                       

 20120530  VERSION=WINDOWS x64   23:52:55  JAN 11, 2026 CP=   3201.609

  Initial Mesh -- BESO Topology Optimization with Augmented Lagrange (N.mm)    



          ***** ANSYS ANALYSIS DEFINITION (PREP7) *****


 ***** ROUTINE COMPLETED *****  CP =      3205.141



 *** ANSYS - ENGINEERING ANALYSIS SYSTEM  RELEASE 2019 R2          19.4     ***
 DISTRIBUTED ANSYS Mechanical Enterprise                       

 20120530  VERSION=WINDOWS x64   23:52:57  JAN 11, 2026 CP=   3205.141

  Initial Mesh -- BESO Topology Optimization with Augmented Lagrange (N.mm)    



          ***** ANSYS ANALYSIS DEFINITION (PREP7) *****


 ***** ROUTINE COMPLETED *****  CP =      3208.109


  ========================================
  *** CONVERGED at iteration 27 ***
  Final Compliance = 8603441.16
  Final Volume Fraction = 0.249807547
  Final P-norm Stress = 420 MPa
  Final P-norm Displacement = 50 mm
  ========================================

 *** ANSYS - ENGINEERING ANALYSIS SYSTEM  RELEASE 2019 R2          19.4     ***
 DISTRIBUTED ANSYS Mechanical Enterprise                       

 20120530  VERSION=WINDOWS x64   23:52:58  JAN 11, 2026 CP=   3208.109

  Initial Mesh -- BESO Topology Optimization with Augmented Lagrange (N.mm)    



          ***** ANSYS ANALYSIS DEFINITION (PREP7) *****

 SELECT       FOR ITEM=MAT  COMPONENT=    
  IN RANGE         1 TO          1 STEP          1

       4083  ELEMENTS (OF      15625  DEFINED) SELECTED BY  ESEL  COMMAND.

 ELEM NUMBERING KEY =  0

 NUMBER KEY SET TO  0  -1=NONE  0=BOTH  1=COLOR  2=NUMBER

 view point for window  1    1.0000      1.0000      1.0000    

 ROTATION ANGLE FOR WINDOW 1 IS     0.00 ABOUT AXIS ZS

 DEFINITION OF COMPONENT = SOLID_TOPOLOGY  ENTITY=ELEM

 SELECT ALL ENTITIES OF TYPE= ALL  AND BELOW
  ========================================
  BESO DUAL P-NORM OPTIMIZATION COMPLETE
  ========================================
  P-Norm Stress Parameter: 8
  P-Norm Displacement Parameter: 6
  Target Volume Fraction: 0.25
  Final Compliance: 8603441.16
  Final Volume Fraction: 0.249807547
  Final Max Stress: 273.999683 MPa
  Final P-norm Stress: 420 MPa (Error: 53.284849 pct)

 *IF  g_stress                          ( =   0.00000     )  LE  
      tol_constraint                    ( =  0.500000E-01 )  THEN    
  Stress Constraint: SATISFIED

 *ELSE

 *ENDIF
  Final Max Displacement: 1.28902569 mm
  Final P-norm Displacement: 50 mm (Error: 3778.89864 pct)

 *IF  g_displ                           ( =   0.00000     )  LE  
      tol_constraint                    ( =  0.500000E-01 )  THEN    
  Displacement Constraint: SATISFIED

 *ELSE

 *ENDIF
  ========================================

 ***** END OF INPUT ENCOUNTERED *****


 NUMBER OF WARNING MESSAGES ENCOUNTERED=         81
 NUMBER OF ERROR   MESSAGES ENCOUNTERED=          0



 ***** PROBLEM TERMINATED BY INDICATED ERROR(S) OR BY END OF INPUT DATA *****

+--------- D I S T R I B U T E D   A N S Y S   S T A T I S T I C S ------------+

Release: 2019 R2            Build: 19.4       Update: UP20190416   Platform: WINDOWS x64 
Date Run: 01/11/2026   Time: 23:52     Process ID: 48480
Operating System: Windows 10  (Build: 26200)

Processor Model: Intel(R) Core(TM) i9-14900HX

Compiler: Intel(R) FORTRAN Compiler Version 17.0.6  (Build: 20171215)
          Intel(R) C/C++ Compiler Version 17.0.6  (Build: 20171215)
          Intel(R) Math Kernel Library Version 2017.0.3 Product Build 20170413

Number of machines requested            :    1
Total number of cores available         :   32
Number of physical cores available      :   24
Number of processes requested           :   12
Number of threads per process requested :    1
Total number of cores requested         :   12 (Distributed Memory Parallel)               
MPI Type: INTELMPI
MPI Version: Intel(R) MPI Library 2018 Update 3 for Windows* OS


GPU Acceleration: Not Requested

Job Name: beso_2020_0
Input File: C:\Users\Suleyman\Documents\01_DER_BESO_OPT\BESO-in-ANSYS\beso_2020.in

  Core                Machine Name   Working Directory
 -----------------------------------------------------
     0             DESKTOP-DC0ROQP   C:\Users\Suleyman\Documents\01_DER_BESO_OPT\BESO-in-ANSYS
     1             DESKTOP-DC0ROQP   C:\Users\Suleyman\Documents\01_DER_BESO_OPT\BESO-in-ANSYS
     2             DESKTOP-DC0ROQP   C:\Users\Suleyman\Documents\01_DER_BESO_OPT\BESO-in-ANSYS
     3             DESKTOP-DC0ROQP   C:\Users\Suleyman\Documents\01_DER_BESO_OPT\BESO-in-ANSYS
     4             DESKTOP-DC0ROQP   C:\Users\Suleyman\Documents\01_DER_BESO_OPT\BESO-in-ANSYS
     5             DESKTOP-DC0ROQP   C:\Users\Suleyman\Documents\01_DER_BESO_OPT\BESO-in-ANSYS
     6             DESKTOP-DC0ROQP   C:\Users\Suleyman\Documents\01_DER_BESO_OPT\BESO-in-ANSYS
     7             DESKTOP-DC0ROQP   C:\Users\Suleyman\Documents\01_DER_BESO_OPT\BESO-in-ANSYS
     8             DESKTOP-DC0ROQP   C:\Users\Suleyman\Documents\01_DER_BESO_OPT\BESO-in-ANSYS
     9             DESKTOP-DC0ROQP   C:\Users\Suleyman\Documents\01_DER_BESO_OPT\BESO-in-ANSYS
    10             DESKTOP-DC0ROQP   C:\Users\Suleyman\Documents\01_DER_BESO_OPT\BESO-in-ANSYS
    11             DESKTOP-DC0ROQP   C:\Users\Suleyman\Documents\01_DER_BESO_OPT\BESO-in-ANSYS
 
Latency time from master to core     1 =    0.681 microseconds
Latency time from master to core     2 =    0.685 microseconds
Latency time from master to core     3 =    0.702 microseconds
Latency time from master to core     4 =    0.695 microseconds
Latency time from master to core     5 =    0.682 microseconds
Latency time from master to core     6 =    0.685 microseconds
Latency time from master to core     7 =    0.682 microseconds
Latency time from master to core     8 =    0.835 microseconds
Latency time from master to core     9 =    0.816 microseconds
Latency time from master to core    10 =    0.834 microseconds
Latency time from master to core    11 =    0.830 microseconds
 
Communication speed from master to core     1 =  7553.80 MB/sec
Communication speed from master to core     2 =  9108.82 MB/sec
Communication speed from master to core     3 =  9166.43 MB/sec
Communication speed from master to core     4 =  9285.48 MB/sec
Communication speed from master to core     5 =  9457.16 MB/sec
Communication speed from master to core     6 =  9442.09 MB/sec
Communication speed from master to core     7 =  9337.07 MB/sec
Communication speed from master to core     8 =  6444.34 MB/sec
Communication speed from master to core     9 =  5312.68 MB/sec
Communication speed from master to core    10 =  7254.92 MB/sec
Communication speed from master to core    11 =  6395.19 MB/sec

Total CPU time for main thread                    :      397.2 seconds
Total CPU time summed for all threads             :     3208.6 seconds

Elapsed time spent pre-processing model (/PREP7)  :      104.0 seconds
Elapsed time spent solution - preprocessing       :        2.1 seconds
Elapsed time spent computing solution             :       24.8 seconds
Elapsed time spent solution - postprocessing      :        1.4 seconds
Elapsed time spent post-processing model (/POST1) :      252.5 seconds
 
Equation solver used                              :            Sparse (symmetric)
Equation solver computational rate                :      120.0 Gflops
Equation solver effective I/O rate                :       41.1 GB/sec

Maximum total memory used                         :     2511.0 MB
Maximum total memory allocated                    :    13376.0 MB
Total physical memory available                   :         32 GB

Total amount of I/O written to disk               :        1.3 GB
Total amount of I/O read from disk                :        0.8 GB

+------ E N D   D I S T R I B U T E D   A N S Y S   S T A T I S T I C S -------+


 *---------------------------------------------------------------------------*
 |                                                                           |
 |                       DISTRIBUTED ANSYS RUN COMPLETED                     |
 |                                                                           |
 |---------------------------------------------------------------------------|
 |                                                                           |
 | Ansys 2019 R2               Build 19.4         UP20190416     WINDOWS x64 |
 |                                                                           |
 |---------------------------------------------------------------------------|
 |                                                                           |
 | Database Requested(-db)  1024 MB    Scratch Memory Requested      1024 MB |
 | Maximum Database Used     127 MB    Maximum Scratch Memory Used    201 MB |
 |                                                                           |
 |---------------------------------------------------------------------------|
 |                                                                           |
 |        CP Time      (sec) =       3208.609       Time  =  23:52:59        |
 |        Elapsed Time (sec) =        410.000       Date  =  01/11/2026      |
 |                                                                           |
 *---------------------------------------------------------------------------*
